/*---------------------------------------------------------------------------*\
  =========                 |
  \\      /  F ield         | OpenFOAM: The Open Source CFD Toolbox
   \\    /   O peration     | Website:  https://openfoam.org
    \\  /    A nd           | Version:  7
     \\/     M anipulation  |
\*---------------------------------------------------------------------------*/
Build  : 7-3bcbaf946ae9
Exec   : simpleFoam
Date   : Jun 24 2020
Time   : 04:59:32
Host   : "andrea-VirtualBox"
PID    : 3049
I/O    : uncollated
Case   : /home/andrea/OpenFOAM/andrea-7/run/tutorials/incompressible/simpleFoam/airFoil2D
nProcs : 1
sigFpe : Enabling floating point exception trapping (FOAM_SIGFPE).
fileModificationChecking : Monitoring run-time modified files using timeStampMaster (fileModificationSkew 10)
allowSystemOperations : Allowing user-supplied system call operations

// * * * * * * * * * * * * * * * * * * * * * * * * * * * * * * * * * * * * * //
Create time

Create mesh for time = 0


SIMPLE: Convergence criteria found
        p: tolerance 1e-05
        U: tolerance 1e-05
        nuTilda: tolerance 1e-05

Reading field p

Reading field U

Reading/calculating face flux field phi

Selecting incompressible transport model Newtonian
Selecting turbulence model type RAS
Selecting RAS turbulence model SpalartAllmaras
Selecting patchDistMethod meshWave
RAS
{
    RASModel        SpalartAllmaras;
    turbulence      on;
    printCoeffs     on;
    sigmaNut        0.66666;
    kappa           0.41;
    Cb1             0.1355;
    Cb2             0.622;
    Cw2             0.3;
    Cw3             2;
    Cv1             7.1;
    Cs              0.3;
}

No MRF models present

No finite volume options present

Starting time loop

Time = 1

smoothSolver:  Solving for Ux, Initial residual = 1, Final residual = 0.0564332, No Iterations 2
smoothSolver:  Solving for Uy, Initial residual = 1, Final residual = 0.0546426, No Iterations 2
GAMG:  Solving for p, Initial residual = 1, Final residual = 0.0655263, No Iterations 9
time step continuity errors : sum local = 0.00030563, global = -9.81807e-05, cumulative = -9.81807e-05
smoothSolver:  Solving for nuTilda, Initial residual = 1, Final residual = 0.0683585, No Iterations 2
ExecutionTime = 0.2 s  ClockTime = 1 s

Time = 2

smoothSolver:  Solving for Ux, Initial residual = 0.415724, Final residual = 0.0184349, No Iterations 4
smoothSolver:  Solving for Uy, Initial residual = 0.562975, Final residual = 0.0149667, No Iterations 4
GAMG:  Solving for p, Initial residual = 0.135155, Final residual = 0.0117384, No Iterations 5
time step continuity errors : sum local = 0.000591827, global = 0.000223524, cumulative = 0.000125344
smoothSolver:  Solving for nuTilda, Initial residual = 0.264789, Final residual = 0.0201621, No Iterations 2
ExecutionTime = 0.21 s  ClockTime = 1 s

Time = 3

smoothSolver:  Solving for Ux, Initial residual = 0.167838, Final residual = 0.00717012, No Iterations 4
smoothSolver:  Solving for Uy, Initial residual = 0.154448, Final residual = 0.00481409, No Iterations 4
GAMG:  Solving for p, Initial residual = 0.198311, Final residual = 0.0133445, No Iterations 7
time step continuity errors : sum local = 0.000508697, global = 7.91225e-06, cumulative = 0.000133256
smoothSolver:  Solving for nuTilda, Initial residual = 0.165417, Final residual = 0.00424815, No Iterations 4
ExecutionTime = 0.23 s  ClockTime = 1 s

Time = 4

smoothSolver:  Solving for Ux, Initial residual = 0.0479453, Final residual = 0.0013185, No Iterations 4
smoothSolver:  Solving for Uy, Initial residual = 0.0556959, Final residual = 0.00181862, No Iterations 4
GAMG:  Solving for p, Initial residual = 0.341478, Final residual = 0.0290279, No Iterations 6
time step continuity errors : sum local = 0.000492882, global = 9.30749e-05, cumulative = 0.000226331
smoothSolver:  Solving for nuTilda, Initial residual = 0.077995, Final residual = 0.00245792, No Iterations 4
ExecutionTime = 0.25 s  ClockTime = 1 s

Time = 5

smoothSolver:  Solving for Ux, Initial residual = 0.116009, Final residual = 0.00545927, No Iterations 4
smoothSolver:  Solving for Uy, Initial residual = 0.145435, Final residual = 0.0041011, No Iterations 4
GAMG:  Solving for p, Initial residual = 0.193128, Final residual = 0.0117634, No Iterations 5
time step continuity errors : sum local = 0.000424451, global = -9.77066e-05, cumulative = 0.000128624
smoothSolver:  Solving for nuTilda, Initial residual = 0.0591888, Final residual = 0.00190263, No Iterations 4
ExecutionTime = 0.26 s  ClockTime = 1 s

Time = 6

smoothSolver:  Solving for Ux, Initial residual = 0.127168, Final residual = 0.00573012, No Iterations 4
smoothSolver:  Solving for Uy, Initial residual = 0.163579, Final residual = 0.0057608, No Iterations 4
GAMG:  Solving for p, Initial residual = 0.247847, Final residual = 0.023386, No Iterations 5
time step continuity errors : sum local = 0.000582326, global = 0.000170842, cumulative = 0.000299467
smoothSolver:  Solving for nuTilda, Initial residual = 0.0477451, Final residual = 0.00149577, No Iterations 4
ExecutionTime = 0.28 s  ClockTime = 1 s

Time = 7

smoothSolver:  Solving for Ux, Initial residual = 0.087463, Final residual = 0.00789013, No Iterations 2
smoothSolver:  Solving for Uy, Initial residual = 0.118168, Final residual = 0.00864888, No Iterations 2
GAMG:  Solving for p, Initial residual = 0.420676, Final residual = 0.0394123, No Iterations 5
time step continuity errors : sum local = 0.000532165, global = -0.000152091, cumulative = 0.000147376
smoothSolver:  Solving for nuTilda, Initial residual = 0.0381171, Final residual = 0.00130824, No Iterations 4
ExecutionTime = 0.29 s  ClockTime = 1 s

Time = 8

smoothSolver:  Solving for Ux, Initial residual = 0.10297, Final residual = 0.00355985, No Iterations 4
smoothSolver:  Solving for Uy, Initial residual = 0.113828, Final residual = 0.00847663, No Iterations 2
GAMG:  Solving for p, Initial residual = 0.270605, Final residual = 0.0163115, No Iterations 5
time step continuity errors : sum local = 0.000380327, global = 9.45451e-05, cumulative = 0.000241921
smoothSolver:  Solving for nuTilda, Initial residual = 0.0320332, Final residual = 0.0011693, No Iterations 4
ExecutionTime = 0.31 s  ClockTime = 1 s

Time = 9

smoothSolver:  Solving for Ux, Initial residual = 0.071481, Final residual = 0.00265448, No Iterations 4
smoothSolver:  Solving for Uy, Initial residual = 0.0765063, Final residual = 0.00747994, No Iterations 2
GAMG:  Solving for p, Initial residual = 0.340636, Final residual = 0.0247968, No Iterations 5
time step continuity errors : sum local = 0.000386059, global = -7.85877e-05, cumulative = 0.000163333
smoothSolver:  Solving for nuTilda, Initial residual = 0.0275942, Final residual = 0.0010359, No Iterations 4
ExecutionTime = 0.33 s  ClockTime = 1 s

Time = 10

smoothSolver:  Solving for Ux, Initial residual = 0.0495338, Final residual = 0.00152826, No Iterations 4
smoothSolver:  Solving for Uy, Initial residual = 0.0653103, Final residual = 0.00185215, No Iterations 4
GAMG:  Solving for p, Initial residual = 0.37535, Final residual = 0.0255069, No Iterations 5
time step continuity errors : sum local = 0.000328356, global = 4.21102e-06, cumulative = 0.000167544
smoothSolver:  Solving for nuTilda, Initial residual = 0.0263267, Final residual = 0.000921625, No Iterations 4
ExecutionTime = 0.35 s  ClockTime = 1 s

Time = 11

smoothSolver:  Solving for Ux, Initial residual = 0.0558654, Final residual = 0.00193447, No Iterations 4
smoothSolver:  Solving for Uy, Initial residual = 0.0704163, Final residual = 0.00199459, No Iterations 4
GAMG:  Solving for p, Initial residual = 0.285357, Final residual = 0.0143628, No Iterations 5
time step continuity errors : sum local = 0.000275192, global = 1.46845e-05, cumulative = 0.000182229
smoothSolver:  Solving for nuTilda, Initial residual = 0.0247527, Final residual = 0.000874975, No Iterations 4
ExecutionTime = 0.36 s  ClockTime = 1 s

Time = 12

smoothSolver:  Solving for Ux, Initial residual = 0.0577238, Final residual = 0.00208841, No Iterations 4
smoothSolver:  Solving for Uy, Initial residual = 0.0635423, Final residual = 0.00193459, No Iterations 4
GAMG:  Solving for p, Initial residual = 0.329523, Final residual = 0.0192581, No Iterations 5
time step continuity errors : sum local = 0.000268202, global = 1.57101e-05, cumulative = 0.000197939
smoothSolver:  Solving for nuTilda, Initial residual = 0.0238877, Final residual = 0.000835446, No Iterations 4
ExecutionTime = 0.38 s  ClockTime = 1 s

Time = 13

smoothSolver:  Solving for Ux, Initial residual = 0.051193, Final residual = 0.00441448, No Iterations 2
smoothSolver:  Solving for Uy, Initial residual = 0.0633643, Final residual = 0.00498737, No Iterations 2
GAMG:  Solving for p, Initial residual = 0.505976, Final residual = 0.0452708, No Iterations 5
time step continuity errors : sum local = 0.000374983, global = 8.69206e-05, cumulative = 0.000284859
smoothSolver:  Solving for nuTilda, Initial residual = 0.0229447, Final residual = 0.000804308, No Iterations 4
ExecutionTime = 0.4 s  ClockTime = 1 s

Time = 14

smoothSolver:  Solving for Ux, Initial residual = 0.0499205, Final residual = 0.00480597, No Iterations 2
smoothSolver:  Solving for Uy, Initial residual = 0.0588916, Final residual = 0.00403339, No Iterations 2
GAMG:  Solving for p, Initial residual = 0.365701, Final residual = 0.0319544, No Iterations 4
time step continuity errors : sum local = 0.000400679, global = 3.25467e-05, cumulative = 0.000317406
smoothSolver:  Solving for nuTilda, Initial residual = 0.0219155, Final residual = 0.000775079, No Iterations 4
ExecutionTime = 0.41 s  ClockTime = 1 s

Time = 15

smoothSolver:  Solving for Ux, Initial residual = 0.0446909, Final residual = 0.00150415, No Iterations 4
smoothSolver:  Solving for Uy, Initial residual = 0.0516771, Final residual = 0.00436536, No Iterations 2
GAMG:  Solving for p, Initial residual = 0.413265, Final residual = 0.027299, No Iterations 5
time step continuity errors : sum local = 0.000266051, global = -1.44103e-05, cumulative = 0.000302996
smoothSolver:  Solving for nuTilda, Initial residual = 0.0210582, Final residual = 0.000739575, No Iterations 4
ExecutionTime = 0.43 s  ClockTime = 1 s

Time = 16

smoothSolver:  Solving for Ux, Initial residual = 0.0389461, Final residual = 0.00126025, No Iterations 4
smoothSolver:  Solving for Uy, Initial residual = 0.049013, Final residual = 0.0013632, No Iterations 4
GAMG:  Solving for p, Initial residual = 0.392168, Final residual = 0.0320977, No Iterations 4
time step continuity errors : sum local = 0.000305899, global = -1.39472e-05, cumulative = 0.000289049
smoothSolver:  Solving for nuTilda, Initial residual = 0.0208949, Final residual = 0.000712941, No Iterations 4
ExecutionTime = 0.45 s  ClockTime = 1 s

Time = 17

smoothSolver:  Solving for Ux, Initial residual = 0.0394425, Final residual = 0.00118367, No Iterations 4
smoothSolver:  Solving for Uy, Initial residual = 0.048373, Final residual = 0.0014677, No Iterations 4
GAMG:  Solving for p, Initial residual = 0.283478, Final residual = 0.0249716, No Iterations 4
time step continuity errors : sum local = 0.000347905, global = -8.11225e-07, cumulative = 0.000288237
smoothSolver:  Solving for nuTilda, Initial residual = 0.0205715, Final residual = 0.000698698, No Iterations 4
ExecutionTime = 0.46 s  ClockTime = 1 s

Time = 18

smoothSolver:  Solving for Ux, Initial residual = 0.0388809, Final residual = 0.00140954, No Iterations 4
smoothSolver:  Solving for Uy, Initial residual = 0.0433546, Final residual = 0.00141303, No Iterations 4
GAMG:  Solving for p, Initial residual = 0.281044, Final residual = 0.0248192, No Iterations 4
time step continuity errors : sum local = 0.00031405, global = 1.01378e-05, cumulative = 0.000298375
smoothSolver:  Solving for nuTilda, Initial residual = 0.0204307, Final residual = 0.000687955, No Iterations 4
ExecutionTime = 0.48 s  ClockTime = 1 s

Time = 19

smoothSolver:  Solving for Ux, Initial residual = 0.0370267, Final residual = 0.00356043, No Iterations 2
smoothSolver:  Solving for Uy, Initial residual = 0.0430082, Final residual = 0.00419014, No Iterations 2
GAMG:  Solving for p, Initial residual = 0.449294, Final residual = 0.0341402, No Iterations 4
time step continuity errors : sum local = 0.000253501, global = -5.37753e-06, cumulative = 0.000292998
smoothSolver:  Solving for nuTilda, Initial residual = 0.0200274, Final residual = 0.000677821, No Iterations 4
ExecutionTime = 0.49 s  ClockTime = 1 s

Time = 20

smoothSolver:  Solving for Ux, Initial residual = 0.034648, Final residual = 0.00308411, No Iterations 2
smoothSolver:  Solving for Uy, Initial residual = 0.0436852, Final residual = 0.00347235, No Iterations 2
GAMG:  Solving for p, Initial residual = 0.42913, Final residual = 0.0393003, No Iterations 4
time step continuity errors : sum local = 0.00031341, global = -3.27152e-06, cumulative = 0.000289726
smoothSolver:  Solving for nuTilda, Initial residual = 0.0200149, Final residual = 0.000661092, No Iterations 4
ExecutionTime = 0.51 s  ClockTime = 1 s

Time = 21

smoothSolver:  Solving for Ux, Initial residual = 0.033646, Final residual = 0.00110937, No Iterations 4
smoothSolver:  Solving for Uy, Initial residual = 0.0407199, Final residual = 0.00365294, No Iterations 2
GAMG:  Solving for p, Initial residual = 0.365678, Final residual = 0.0355593, No Iterations 5
time step continuity errors : sum local = 0.000309741, global = 4.71394e-05, cumulative = 0.000336866
smoothSolver:  Solving for nuTilda, Initial residual = 0.0194292, Final residual = 0.000639805, No Iterations 4
ExecutionTime = 0.52 s  ClockTime = 1 s

Time = 22

smoothSolver:  Solving for Ux, Initial residual = 0.0309289, Final residual = 0.00109932, No Iterations 4
smoothSolver:  Solving for Uy, Initial residual = 0.0372555, Final residual = 0.00117541, No Iterations 4
GAMG:  Solving for p, Initial residual = 0.466431, Final residual = 0.0407478, No Iterations 4
time step continuity errors : sum local = 0.000263222, global = -3.2049e-06, cumulative = 0.000333661
smoothSolver:  Solving for nuTilda, Initial residual = 0.0193421, Final residual = 0.000618294, No Iterations 4
ExecutionTime = 0.53 s  ClockTime = 1 s

Time = 23

smoothSolver:  Solving for Ux, Initial residual = 0.0281388, Final residual = 0.000857024, No Iterations 4
smoothSolver:  Solving for Uy, Initial residual = 0.0354913, Final residual = 0.00112416, No Iterations 4
GAMG:  Solving for p, Initial residual = 0.309709, Final residual = 0.0208641, No Iterations 4
time step continuity errors : sum local = 0.000198056, global = -1.37246e-05, cumulative = 0.000319936
smoothSolver:  Solving for nuTilda, Initial residual = 0.0190429, Final residual = 0.000598378, No Iterations 4
ExecutionTime = 0.55 s  ClockTime = 1 s

Time = 24

smoothSolver:  Solving for Ux, Initial residual = 0.0297453, Final residual = 0.00101947, No Iterations 4
smoothSolver:  Solving for Uy, Initial residual = 0.0356846, Final residual = 0.00110551, No Iterations 4
GAMG:  Solving for p, Initial residual = 0.238816, Final residual = 0.0199707, No Iterations 4
time step continuity errors : sum local = 0.000232736, global = -2.86673e-05, cumulative = 0.000291269
smoothSolver:  Solving for nuTilda, Initial residual = 0.0189156, Final residual = 0.000576862, No Iterations 4
ExecutionTime = 0.57 s  ClockTime = 1 s

Time = 25

smoothSolver:  Solving for Ux, Initial residual = 0.0297318, Final residual = 0.00108745, No Iterations 4
smoothSolver:  Solving for Uy, Initial residual = 0.0339785, Final residual = 0.00107797, No Iterations 4
GAMG:  Solving for p, Initial residual = 0.251089, Final residual = 0.0229144, No Iterations 4
time step continuity errors : sum local = 0.000244412, global = -3.15187e-05, cumulative = 0.00025975
smoothSolver:  Solving for nuTilda, Initial residual = 0.018553, Final residual = 0.00055147, No Iterations 4
ExecutionTime = 0.59 s  ClockTime = 1 s

Time = 26

smoothSolver:  Solving for Ux, Initial residual = 0.0273175, Final residual = 0.00262825, No Iterations 2
smoothSolver:  Solving for Uy, Initial residual = 0.0314027, Final residual = 0.000950482, No Iterations 4
GAMG:  Solving for p, Initial residual = 0.344792, Final residual = 0.0280018, No Iterations 4
time step continuity errors : sum local = 0.0002079, global = -1.60822e-05, cumulative = 0.000243668
smoothSolver:  Solving for nuTilda, Initial residual = 0.0182793, Final residual = 0.000519615, No Iterations 4
ExecutionTime = 0.61 s  ClockTime = 1 s

Time = 27

smoothSolver:  Solving for Ux, Initial residual = 0.0251037, Final residual = 0.0023653, No Iterations 2
smoothSolver:  Solving for Uy, Initial residual = 0.029972, Final residual = 0.00282285, No Iterations 2
GAMG:  Solving for p, Initial residual = 0.395161, Final residual = 0.0330401, No Iterations 4
time step continuity errors : sum local = 0.000200371, global = 2.88688e-06, cumulative = 0.000246555
smoothSolver:  Solving for nuTilda, Initial residual = 0.0180529, Final residual = 0.000489639, No Iterations 4
ExecutionTime = 0.62 s  ClockTime = 1 s

Time = 28

smoothSolver:  Solving for Ux, Initial residual = 0.0243448, Final residual = 0.000815947, No Iterations 4
smoothSolver:  Solving for Uy, Initial residual = 0.0291836, Final residual = 0.000848366, No Iterations 4
GAMG:  Solving for p, Initial residual = 0.363738, Final residual = 0.0339027, No Iterations 5
time step continuity errors : sum local = 0.000220912, global = 2.23083e-05, cumulative = 0.000268863
smoothSolver:  Solving for nuTilda, Initial residual = 0.0180523, Final residual = 0.000457132, No Iterations 4
ExecutionTime = 0.63 s  ClockTime = 1 s

Time = 29

smoothSolver:  Solving for Ux, Initial residual = 0.0226875, Final residual = 0.000763663, No Iterations 4
smoothSolver:  Solving for Uy, Initial residual = 0.0255368, Final residual = 0.000842829, No Iterations 4
GAMG:  Solving for p, Initial residual = 0.362174, Final residual = 0.0351511, No Iterations 4
time step continuity errors : sum local = 0.00021329, global = -9.18909e-07, cumulative = 0.000267944
smoothSolver:  Solving for nuTilda, Initial residual = 0.0177803, Final residual = 0.00042228, No Iterations 4
ExecutionTime = 0.65 s  ClockTime = 1 s

Time = 30

smoothSolver:  Solving for Ux, Initial residual = 0.0225546, Final residual = 0.000625151, No Iterations 4
smoothSolver:  Solving for Uy, Initial residual = 0.0246801, Final residual = 0.000754839, No Iterations 4
GAMG:  Solving for p, Initial residual = 0.24932, Final residual = 0.0244899, No Iterations 4
time step continuity errors : sum local = 0.000202199, global = -2.1453e-05, cumulative = 0.000246491
smoothSolver:  Solving for nuTilda, Initial residual = 0.0175801, Final residual = 0.000382666, No Iterations 4
ExecutionTime = 0.67 s  ClockTime = 1 s

Time = 31

smoothSolver:  Solving for Ux, Initial residual = 0.0247502, Final residual = 0.000828247, No Iterations 4
smoothSolver:  Solving for Uy, Initial residual = 0.0256555, Final residual = 0.00077298, No Iterations 4
GAMG:  Solving for p, Initial residual = 0.205448, Final residual = 0.0143047, No Iterations 6
time step continuity errors : sum local = 0.000138749, global = -3.12257e-05, cumulative = 0.000215266
smoothSolver:  Solving for nuTilda, Initial residual = 0.0172721, Final residual = 0.000342962, No Iterations 4
ExecutionTime = 0.68 s  ClockTime = 1 s

Time = 32

smoothSolver:  Solving for Ux, Initial residual = 0.0248075, Final residual = 0.000860329, No Iterations 4
smoothSolver:  Solving for Uy, Initial residual = 0.0251191, Final residual = 0.000806154, No Iterations 4
GAMG:  Solving for p, Initial residual = 0.204322, Final residual = 0.0172142, No Iterations 6
time step continuity errors : sum local = 0.000157644, global = -3.97162e-05, cumulative = 0.000175549
smoothSolver:  Solving for nuTilda, Initial residual = 0.017117, Final residual = 0.000330908, No Iterations 4
ExecutionTime = 0.7 s  ClockTime = 1 s

Time = 33

smoothSolver:  Solving for Ux, Initial residual = 0.0223998, Final residual = 0.00066781, No Iterations 4
smoothSolver:  Solving for Uy, Initial residual = 0.0224734, Final residual = 0.000718612, No Iterations 4
GAMG:  Solving for p, Initial residual = 0.243006, Final residual = 0.0195097, No Iterations 6
time step continuity errors : sum local = 0.000141831, global = -3.03208e-05, cumulative = 0.000145228
smoothSolver:  Solving for nuTilda, Initial residual = 0.016874, Final residual = 0.000316017, No Iterations 4
ExecutionTime = 0.71 s  ClockTime = 1 s

Time = 34

smoothSolver:  Solving for Ux, Initial residual = 0.020893, Final residual = 0.00057142, No Iterations 4
smoothSolver:  Solving for Uy, Initial residual = 0.020232, Final residual = 0.000572316, No Iterations 4
GAMG:  Solving for p, Initial residual = 0.281717, Final residual = 0.0279441, No Iterations 4
time step continuity errors : sum local = 0.000162799, global = -9.73913e-07, cumulative = 0.000144255
smoothSolver:  Solving for nuTilda, Initial residual = 0.0167179, Final residual = 0.000295576, No Iterations 4
ExecutionTime = 0.73 s  ClockTime = 1 s

Time = 35

smoothSolver:  Solving for Ux, Initial residual = 0.0209333, Final residual = 0.000639532, No Iterations 4
smoothSolver:  Solving for Uy, Initial residual = 0.0192803, Final residual = 0.00192763, No Iterations 2
GAMG:  Solving for p, Initial residual = 0.272168, Final residual = 0.0195218, No Iterations 6
time step continuity errors : sum local = 0.000107129, global = 1.8889e-05, cumulative = 0.000163144
smoothSolver:  Solving for nuTilda, Initial residual = 0.01657, Final residual = 0.000271244, No Iterations 4
ExecutionTime = 0.75 s  ClockTime = 1 s

Time = 36

smoothSolver:  Solving for Ux, Initial residual = 0.0204059, Final residual = 0.00059277, No Iterations 4
smoothSolver:  Solving for Uy, Initial residual = 0.0184357, Final residual = 0.000550458, No Iterations 4
GAMG:  Solving for p, Initial residual = 0.231647, Final residual = 0.0203557, No Iterations 6
time step continuity errors : sum local = 0.000125964, global = 2.94993e-05, cumulative = 0.000192643
smoothSolver:  Solving for nuTilda, Initial residual = 0.0165181, Final residual = 0.0016393, No Iterations 2
ExecutionTime = 0.77 s  ClockTime = 1 s

Time = 37

smoothSolver:  Solving for Ux, Initial residual = 0.0205513, Final residual = 0.000596231, No Iterations 4
smoothSolver:  Solving for Uy, Initial residual = 0.0183415, Final residual = 0.000580943, No Iterations 4
GAMG:  Solving for p, Initial residual = 0.182109, Final residual = 0.0162279, No Iterations 6
time step continuity errors : sum local = 0.000117497, global = 2.62375e-05, cumulative = 0.00021888
smoothSolver:  Solving for nuTilda, Initial residual = 0.0164579, Final residual = 0.00163003, No Iterations 2
ExecutionTime = 0.79 s  ClockTime = 1 s

Time = 38

smoothSolver:  Solving for Ux, Initial residual = 0.0211565, Final residual = 0.000706767, No Iterations 4
smoothSolver:  Solving for Uy, Initial residual = 0.018361, Final residual = 0.000611085, No Iterations 4
GAMG:  Solving for p, Initial residual = 0.153824, Final residual = 0.0119074, No Iterations 6
time step continuity errors : sum local = 9.23666e-05, global = 1.85401e-05, cumulative = 0.000237421
smoothSolver:  Solving for nuTilda, Initial residual = 0.0165762, Final residual = 0.00161002, No Iterations 2
ExecutionTime = 0.81 s  ClockTime = 1 s

Time = 39

smoothSolver:  Solving for Ux, Initial residual = 0.0211481, Final residual = 0.000738555, No Iterations 4
smoothSolver:  Solving for Uy, Initial residual = 0.0175137, Final residual = 0.000598988, No Iterations 4
GAMG:  Solving for p, Initial residual = 0.152278, Final residual = 0.0119912, No Iterations 6
time step continuity errors : sum local = 8.90489e-05, global = 1.08566e-05, cumulative = 0.000248277
smoothSolver:  Solving for nuTilda, Initial residual = 0.016578, Final residual = 0.00160325, No Iterations 2
bounding nuTilda, min: -0.0109617 max: 2.24341 average: 0.172949
ExecutionTime = 0.82 s  ClockTime = 1 s

Time = 40

smoothSolver:  Solving for Ux, Initial residual = 0.0202663, Final residual = 0.000678077, No Iterations 4
smoothSolver:  Solving for Uy, Initial residual = 0.0163513, Final residual = 0.000539451, No Iterations 4
GAMG:  Solving for p, Initial residual = 0.160476, Final residual = 0.0158326, No Iterations 6
time step continuity errors : sum local = 0.000106278, global = -1.10829e-05, cumulative = 0.000237194
smoothSolver:  Solving for nuTilda, Initial residual = 0.0166666, Final residual = 0.00159438, No Iterations 2
ExecutionTime = 0.84 s  ClockTime = 1 s

Time = 41

smoothSolver:  Solving for Ux, Initial residual = 0.0195591, Final residual = 0.000617303, No Iterations 4
smoothSolver:  Solving for Uy, Initial residual = 0.0156643, Final residual = 0.00048815, No Iterations 4
GAMG:  Solving for p, Initial residual = 0.162131, Final residual = 0.0159806, No Iterations 7
time step continuity errors : sum local = 0.000100577, global = 2.33342e-05, cumulative = 0.000260529
smoothSolver:  Solving for nuTilda, Initial residual = 0.0169595, Final residual = 0.00160128, No Iterations 2
ExecutionTime = 0.86 s  ClockTime = 1 s

Time = 42

smoothSolver:  Solving for Ux, Initial residual = 0.0196324, Final residual = 0.000589026, No Iterations 4
smoothSolver:  Solving for Uy, Initial residual = 0.0158753, Final residual = 0.000502668, No Iterations 4
GAMG:  Solving for p, Initial residual = 0.152913, Final residual = 0.0133461, No Iterations 6
time step continuity errors : sum local = 8.33187e-05, global = 1.25756e-05, cumulative = 0.000273104
smoothSolver:  Solving for nuTilda, Initial residual = 0.0172476, Final residual = 0.0016208, No Iterations 2
ExecutionTime = 0.87 s  ClockTime = 1 s

Time = 43

smoothSolver:  Solving for Ux, Initial residual = 0.0196472, Final residual = 0.000564574, No Iterations 4
smoothSolver:  Solving for Uy, Initial residual = 0.0164265, Final residual = 0.000549364, No Iterations 4
GAMG:  Solving for p, Initial residual = 0.139669, Final residual = 0.0101086, No Iterations 8
time step continuity errors : sum local = 6.55541e-05, global = 1.63109e-05, cumulative = 0.000289415
smoothSolver:  Solving for nuTilda, Initial residual = 0.0175296, Final residual = 0.00165453, No Iterations 2
ExecutionTime = 0.89 s  ClockTime = 1 s

Time = 44

smoothSolver:  Solving for Ux, Initial residual = 0.0199475, Final residual = 0.000602594, No Iterations 4
smoothSolver:  Solving for Uy, Initial residual = 0.016557, Final residual = 0.000599325, No Iterations 4
GAMG:  Solving for p, Initial residual = 0.126685, Final residual = 0.0110916, No Iterations 8
time step continuity errors : sum local = 7.4037e-05, global = 1.92587e-05, cumulative = 0.000308674
smoothSolver:  Solving for nuTilda, Initial residual = 0.0177876, Final residual = 0.00169819, No Iterations 2
bounding nuTilda, min: -0.0261754 max: 2.19692 average: 0.177207
ExecutionTime = 0.91 s  ClockTime = 1 s

Time = 45

smoothSolver:  Solving for Ux, Initial residual = 0.0200676, Final residual = 0.000651836, No Iterations 4
smoothSolver:  Solving for Uy, Initial residual = 0.0161857, Final residual = 0.000611352, No Iterations 4
GAMG:  Solving for p, Initial residual = 0.121385, Final residual = 0.0107876, No Iterations 8
time step continuity errors : sum local = 7.12299e-05, global = 1.8515e-05, cumulative = 0.000327189
smoothSolver:  Solving for nuTilda, Initial residual = 0.018139, Final residual = 0.00173284, No Iterations 2
bounding nuTilda, min: -0.0158269 max: 2.18684 average: 0.177845
ExecutionTime = 0.93 s  ClockTime = 1 s

Time = 46

smoothSolver:  Solving for Ux, Initial residual = 0.0199866, Final residual = 0.000668968, No Iterations 4
smoothSolver:  Solving for Uy, Initial residual = 0.015652, Final residual = 0.000585549, No Iterations 4
GAMG:  Solving for p, Initial residual = 0.116052, Final residual = 0.0100261, No Iterations 7
time step continuity errors : sum local = 6.42696e-05, global = -1.65839e-05, cumulative = 0.000310605
smoothSolver:  Solving for nuTilda, Initial residual = 0.0185061, Final residual = 0.00176651, No Iterations 2
bounding nuTilda, min: -0.0570439 max: 2.15178 average: 0.178396
ExecutionTime = 0.95 s  ClockTime = 1 s

Time = 47

smoothSolver:  Solving for Ux, Initial residual = 0.0198426, Final residual = 0.000659932, No Iterations 4
smoothSolver:  Solving for Uy, Initial residual = 0.0155563, Final residual = 0.000570413, No Iterations 4
GAMG:  Solving for p, Initial residual = 0.105313, Final residual = 0.0085162, No Iterations 7
time step continuity errors : sum local = 5.41236e-05, global = -1.55352e-05, cumulative = 0.00029507
smoothSolver:  Solving for nuTilda, Initial residual = 0.0188827, Final residual = 0.00179218, No Iterations 2
bounding nuTilda, min: -0.0887687 max: 2.1313 average: 0.178877
ExecutionTime = 0.96 s  ClockTime = 1 s

Time = 48

smoothSolver:  Solving for Ux, Initial residual = 0.0199689, Final residual = 0.000627082, No Iterations 4
smoothSolver:  Solving for Uy, Initial residual = 0.0160745, Final residual = 0.000587532, No Iterations 4
GAMG:  Solving for p, Initial residual = 0.0985562, Final residual = 0.00917383, No Iterations 7
time step continuity errors : sum local = 5.91744e-05, global = 1.36074e-05, cumulative = 0.000308677
smoothSolver:  Solving for nuTilda, Initial residual = 0.0191846, Final residual = 0.00180989, No Iterations 2
bounding nuTilda, min: -0.0912951 max: 2.10387 average: 0.179318
ExecutionTime = 0.98 s  ClockTime = 1 s

Time = 49

smoothSolver:  Solving for Ux, Initial residual = 0.0199566, Final residual = 0.000592644, No Iterations 4
smoothSolver:  Solving for Uy, Initial residual = 0.0166484, Final residual = 0.000622494, No Iterations 4
GAMG:  Solving for p, Initial residual = 0.0911392, Final residual = 0.00869269, No Iterations 7
time step continuity errors : sum local = 5.72217e-05, global = 1.32899e-05, cumulative = 0.000321967
smoothSolver:  Solving for nuTilda, Initial residual = 0.0194629, Final residual = 0.00182221, No Iterations 2
bounding nuTilda, min: -0.0439121 max: 2.07207 average: 0.179687
ExecutionTime = 1 s  ClockTime = 1 s

Time = 50

smoothSolver:  Solving for Ux, Initial residual = 0.0201629, Final residual = 0.000598637, No Iterations 4
smoothSolver:  Solving for Uy, Initial residual = 0.0170581, Final residual = 0.000650609, No Iterations 4
GAMG:  Solving for p, Initial residual = 0.0844875, Final residual = 0.00767903, No Iterations 7
time step continuity errors : sum local = 5.12204e-05, global = 1.20463e-05, cumulative = 0.000334013
smoothSolver:  Solving for nuTilda, Initial residual = 0.0197139, Final residual = 0.00183087, No Iterations 2
bounding nuTilda, min: -0.0579689 max: 2.03987 average: 0.179965
ExecutionTime = 1.11 s  ClockTime = 2 s

Time = 51

smoothSolver:  Solving for Ux, Initial residual = 0.0202622, Final residual = 0.000620869, No Iterations 4
smoothSolver:  Solving for Uy, Initial residual = 0.0172264, Final residual = 0.000663521, No Iterations 4
GAMG:  Solving for p, Initial residual = 0.0797323, Final residual = 0.00646229, No Iterations 7
time step continuity errors : sum local = 4.28459e-05, global = 1.02584e-05, cumulative = 0.000344272
smoothSolver:  Solving for nuTilda, Initial residual = 0.0199657, Final residual = 0.00183039, No Iterations 2
bounding nuTilda, min: -0.0433947 max: 2.00242 average: 0.180154
ExecutionTime = 1.13 s  ClockTime = 2 s

Time = 52

smoothSolver:  Solving for Ux, Initial residual = 0.0201137, Final residual = 0.000634118, No Iterations 4
smoothSolver:  Solving for Uy, Initial residual = 0.0170931, Final residual = 0.00067185, No Iterations 4
GAMG:  Solving for p, Initial residual = 0.0742291, Final residual = 0.00532831, No Iterations 6
time step continuity errors : sum local = 3.45095e-05, global = -5.82995e-06, cumulative = 0.000338442
smoothSolver:  Solving for nuTilda, Initial residual = 0.020147, Final residual = 0.00182922, No Iterations 2
bounding nuTilda, min: -0.0249663 max: 1.96659 average: 0.180254
ExecutionTime = 1.14 s  ClockTime = 2 s

Time = 53

smoothSolver:  Solving for Ux, Initial residual = 0.0199273, Final residual = 0.000632112, No Iterations 4
smoothSolver:  Solving for Uy, Initial residual = 0.0169265, Final residual = 0.000676523, No Iterations 4
GAMG:  Solving for p, Initial residual = 0.0702625, Final residual = 0.00635863, No Iterations 6
time step continuity errors : sum local = 4.03228e-05, global = 9.15202e-06, cumulative = 0.000347594
smoothSolver:  Solving for nuTilda, Initial residual = 0.0203487, Final residual = 0.00182047, No Iterations 2
bounding nuTilda, min: -0.0180918 max: 1.93351 average: 0.180262
ExecutionTime = 1.16 s  ClockTime = 2 s

Time = 54

smoothSolver:  Solving for Ux, Initial residual = 0.0199083, Final residual = 0.000614259, No Iterations 4
smoothSolver:  Solving for Uy, Initial residual = 0.0167569, Final residual = 0.000668086, No Iterations 4
GAMG:  Solving for p, Initial residual = 0.068058, Final residual = 0.00667098, No Iterations 7
time step continuity errors : sum local = 4.19732e-05, global = -1.02391e-05, cumulative = 0.000337355
smoothSolver:  Solving for nuTilda, Initial residual = 0.0205027, Final residual = 0.00180643, No Iterations 2
bounding nuTilda, min: -0.0116145 max: 1.89116 average: 0.180175
ExecutionTime = 1.18 s  ClockTime = 2 s

Time = 55

smoothSolver:  Solving for Ux, Initial residual = 0.0201409, Final residual = 0.000595096, No Iterations 4
smoothSolver:  Solving for Uy, Initial residual = 0.0166501, Final residual = 0.000638439, No Iterations 4
GAMG:  Solving for p, Initial residual = 0.0635375, Final residual = 0.00497052, No Iterations 7
time step continuity errors : sum local = 3.16799e-05, global = -7.93288e-06, cumulative = 0.000329422
smoothSolver:  Solving for nuTilda, Initial residual = 0.0206311, Final residual = 0.00178904, No Iterations 2
bounding nuTilda, min: -0.0024092 max: 1.85569 average: 0.18
ExecutionTime = 1.2 s  ClockTime = 2 s

Time = 56

smoothSolver:  Solving for Ux, Initial residual = 0.0203336, Final residual = 0.000586715, No Iterations 4
smoothSolver:  Solving for Uy, Initial residual = 0.0165221, Final residual = 0.000601715, No Iterations 4
GAMG:  Solving for p, Initial residual = 0.0581438, Final residual = 0.00575459, No Iterations 5
time step continuity errors : sum local = 3.71666e-05, global = -1.02629e-05, cumulative = 0.000319159
smoothSolver:  Solving for nuTilda, Initial residual = 0.0207535, Final residual = 0.00176801, No Iterations 2
ExecutionTime = 1.23 s  ClockTime = 2 s

Time = 57

smoothSolver:  Solving for Ux, Initial residual = 0.0202916, Final residual = 0.000588644, No Iterations 4
smoothSolver:  Solving for Uy, Initial residual = 0.0164021, Final residual = 0.000575907, No Iterations 4
GAMG:  Solving for p, Initial residual = 0.0544896, Final residual = 0.00455139, No Iterations 6
time step continuity errors : sum local = 2.95261e-05, global = 1.80642e-06, cumulative = 0.000320965
smoothSolver:  Solving for nuTilda, Initial residual = 0.0208294, Final residual = 0.00173929, No Iterations 2
ExecutionTime = 1.25 s  ClockTime = 2 s

Time = 58

smoothSolver:  Solving for Ux, Initial residual = 0.0201719, Final residual = 0.000601202, No Iterations 4
smoothSolver:  Solving for Uy, Initial residual = 0.0163588, Final residual = 0.000574605, No Iterations 4
GAMG:  Solving for p, Initial residual = 0.0516886, Final residual = 0.00424252, No Iterations 8
time step continuity errors : sum local = 2.68999e-05, global = -7.34297e-06, cumulative = 0.000313622
smoothSolver:  Solving for nuTilda, Initial residual = 0.0208699, Final residual = 0.00170759, No Iterations 2
ExecutionTime = 1.27 s  ClockTime = 2 s

Time = 59

smoothSolver:  Solving for Ux, Initial residual = 0.019798, Final residual = 0.000610231, No Iterations 4
smoothSolver:  Solving for Uy, Initial residual = 0.0160416, Final residual = 0.000587161, No Iterations 4
GAMG:  Solving for p, Initial residual = 0.0505947, Final residual = 0.00460253, No Iterations 7
time step continuity errors : sum local = 2.85125e-05, global = 7.1757e-06, cumulative = 0.000320798
smoothSolver:  Solving for nuTilda, Initial residual = 0.0208542, Final residual = 0.00167803, No Iterations 2
ExecutionTime = 1.29 s  ClockTime = 2 s

Time = 60

smoothSolver:  Solving for Ux, Initial residual = 0.0195577, Final residual = 0.000612814, No Iterations 4
smoothSolver:  Solving for Uy, Initial residual = 0.0156022, Final residual = 0.00059024, No Iterations 4
GAMG:  Solving for p, Initial residual = 0.0473172, Final residual = 0.00442776, No Iterations 6
time step continuity errors : sum local = 2.71132e-05, global = -5.78308e-06, cumulative = 0.000315015
smoothSolver:  Solving for nuTilda, Initial residual = 0.0208162, Final residual = 0.00164186, No Iterations 2
ExecutionTime = 1.31 s  ClockTime = 2 s

Time = 61

smoothSolver:  Solving for Ux, Initial residual = 0.0194156, Final residual = 0.000608904, No Iterations 4
smoothSolver:  Solving for Uy, Initial residual = 0.0150542, Final residual = 0.000570258, No Iterations 4
GAMG:  Solving for p, Initial residual = 0.0442919, Final residual = 0.00416757, No Iterations 6
time step continuity errors : sum local = 2.57148e-05, global = -5.56209e-06, cumulative = 0.000309453
smoothSolver:  Solving for nuTilda, Initial residual = 0.0206784, Final residual = 0.00159927, No Iterations 2
ExecutionTime = 1.32 s  ClockTime = 2 s

Time = 62

smoothSolver:  Solving for Ux, Initial residual = 0.0192357, Final residual = 0.000601576, No Iterations 4
smoothSolver:  Solving for Uy, Initial residual = 0.014515, Final residual = 0.000543345, No Iterations 4
GAMG:  Solving for p, Initial residual = 0.0411812, Final residual = 0.0035886, No Iterations 7
time step continuity errors : sum local = 2.24603e-05, global = 5.52389e-06, cumulative = 0.000314977
smoothSolver:  Solving for nuTilda, Initial residual = 0.0205607, Final residual = 0.00156174, No Iterations 2
ExecutionTime = 1.34 s  ClockTime = 2 s

Time = 63

smoothSolver:  Solving for Ux, Initial residual = 0.0190066, Final residual = 0.000594928, No Iterations 4
smoothSolver:  Solving for Uy, Initial residual = 0.0142411, Final residual = 0.000523363, No Iterations 4
GAMG:  Solving for p, Initial residual = 0.0393963, Final residual = 0.00375042, No Iterations 6
time step continuity errors : sum local = 2.36746e-05, global = 3.95358e-06, cumulative = 0.00031893
smoothSolver:  Solving for nuTilda, Initial residual = 0.0204124, Final residual = 0.0015242, No Iterations 2
ExecutionTime = 1.36 s  ClockTime = 2 s

Time = 64

smoothSolver:  Solving for Ux, Initial residual = 0.018615, Final residual = 0.000587303, No Iterations 4
smoothSolver:  Solving for Uy, Initial residual = 0.0139989, Final residual = 0.000518211, No Iterations 4
GAMG:  Solving for p, Initial residual = 0.037955, Final residual = 0.00339868, No Iterations 5
time step continuity errors : sum local = 2.13984e-05, global = -5.90845e-06, cumulative = 0.000313022
smoothSolver:  Solving for nuTilda, Initial residual = 0.0202309, Final residual = 0.00148664, No Iterations 2
ExecutionTime = 1.38 s  ClockTime = 2 s

Time = 65

smoothSolver:  Solving for Ux, Initial residual = 0.0180887, Final residual = 0.000576096, No Iterations 4
smoothSolver:  Solving for Uy, Initial residual = 0.013707, Final residual = 0.000525496, No Iterations 4
GAMG:  Solving for p, Initial residual = 0.0359532, Final residual = 0.00313386, No Iterations 5
time step continuity errors : sum local = 1.95561e-05, global = -4.94861e-06, cumulative = 0.000308073
smoothSolver:  Solving for nuTilda, Initial residual = 0.0200657, Final residual = 0.00145212, No Iterations 2
ExecutionTime = 1.39 s  ClockTime = 2 s

Time = 66

smoothSolver:  Solving for Ux, Initial residual = 0.0175915, Final residual = 0.000566944, No Iterations 4
smoothSolver:  Solving for Uy, Initial residual = 0.0133278, Final residual = 0.000528961, No Iterations 4
GAMG:  Solving for p, Initial residual = 0.0352905, Final residual = 0.00235164, No Iterations 6
time step continuity errors : sum local = 1.44788e-05, global = -3.63572e-06, cumulative = 0.000304437
smoothSolver:  Solving for nuTilda, Initial residual = 0.0198991, Final residual = 0.00142105, No Iterations 2
ExecutionTime = 1.41 s  ClockTime = 2 s

Time = 67

smoothSolver:  Solving for Ux, Initial residual = 0.0170938, Final residual = 0.000559915, No Iterations 4
smoothSolver:  Solving for Uy, Initial residual = 0.0129056, Final residual = 0.000525171, No Iterations 4
GAMG:  Solving for p, Initial residual = 0.0345753, Final residual = 0.00278563, No Iterations 6
time step continuity errors : sum local = 1.6958e-05, global = -4.48103e-06, cumulative = 0.000299956
smoothSolver:  Solving for nuTilda, Initial residual = 0.0197617, Final residual = 0.00139426, No Iterations 2
ExecutionTime = 1.43 s  ClockTime = 2 s

Time = 68

smoothSolver:  Solving for Ux, Initial residual = 0.0165499, Final residual = 0.000549163, No Iterations 4
smoothSolver:  Solving for Uy, Initial residual = 0.0124477, Final residual = 0.000514877, No Iterations 4
GAMG:  Solving for p, Initial residual = 0.033388, Final residual = 0.00314505, No Iterations 6
time step continuity errors : sum local = 1.91901e-05, global = -4.64981e-06, cumulative = 0.000295307
smoothSolver:  Solving for nuTilda, Initial residual = 0.0196288, Final residual = 0.00137372, No Iterations 2
ExecutionTime = 1.44 s  ClockTime = 2 s

Time = 69

smoothSolver:  Solving for Ux, Initial residual = 0.0159623, Final residual = 0.000532833, No Iterations 4
smoothSolver:  Solving for Uy, Initial residual = 0.0120441, Final residual = 0.000504779, No Iterations 4
GAMG:  Solving for p, Initial residual = 0.0316497, Final residual = 0.00287458, No Iterations 6
time step continuity errors : sum local = 1.77769e-05, global = -4.03468e-06, cumulative = 0.000291272
smoothSolver:  Solving for nuTilda, Initial residual = 0.0195935, Final residual = 0.00135388, No Iterations 2
ExecutionTime = 1.46 s  ClockTime = 2 s

Time = 70

smoothSolver:  Solving for Ux, Initial residual = 0.0153864, Final residual = 0.000512623, No Iterations 4
smoothSolver:  Solving for Uy, Initial residual = 0.0117016, Final residual = 0.000494452, No Iterations 4
GAMG:  Solving for p, Initial residual = 0.0298464, Final residual = 0.00286504, No Iterations 5
time step continuity errors : sum local = 1.80283e-05, global = 4.08736e-06, cumulative = 0.000295359
smoothSolver:  Solving for nuTilda, Initial residual = 0.0196665, Final residual = 0.00133956, No Iterations 2
ExecutionTime = 1.48 s  ClockTime = 2 s

Time = 71

smoothSolver:  Solving for Ux, Initial residual = 0.0147747, Final residual = 0.000490999, No Iterations 4
smoothSolver:  Solving for Uy, Initial residual = 0.0113464, Final residual = 0.000485287, No Iterations 4
GAMG:  Solving for p, Initial residual = 0.0284529, Final residual = 0.00260106, No Iterations 5
time step continuity errors : sum local = 1.654e-05, global = 3.29969e-06, cumulative = 0.000298659
smoothSolver:  Solving for nuTilda, Initial residual = 0.0198262, Final residual = 0.00133097, No Iterations 2
ExecutionTime = 1.49 s  ClockTime = 2 s

Time = 72

smoothSolver:  Solving for Ux, Initial residual = 0.0141786, Final residual = 0.000468872, No Iterations 4
smoothSolver:  Solving for Uy, Initial residual = 0.0110022, Final residual = 0.000472035, No Iterations 4
GAMG:  Solving for p, Initial residual = 0.0279165, Final residual = 0.0020771, No Iterations 6
time step continuity errors : sum local = 1.3309e-05, global = -2.84591e-06, cumulative = 0.000295813
smoothSolver:  Solving for nuTilda, Initial residual = 0.0201365, Final residual = 0.00132363, No Iterations 2
ExecutionTime = 1.51 s  ClockTime = 2 s

Time = 73

smoothSolver:  Solving for Ux, Initial residual = 0.0135675, Final residual = 0.000446245, No Iterations 4
smoothSolver:  Solving for Uy, Initial residual = 0.0105965, Final residual = 0.000453467, No Iterations 4
GAMG:  Solving for p, Initial residual = 0.0272402, Final residual = 0.00230467, No Iterations 6
time step continuity errors : sum local = 1.48447e-05, global = -2.94953e-06, cumulative = 0.000292864
smoothSolver:  Solving for nuTilda, Initial residual = 0.0203786, Final residual = 0.00131012, No Iterations 2
ExecutionTime = 1.53 s  ClockTime = 2 s

Time = 74

smoothSolver:  Solving for Ux, Initial residual = 0.0129582, Final residual = 0.000424016, No Iterations 4
smoothSolver:  Solving for Uy, Initial residual = 0.0101808, Final residual = 0.000432352, No Iterations 4
GAMG:  Solving for p, Initial residual = 0.0260334, Final residual = 0.00232439, No Iterations 6
time step continuity errors : sum local = 1.5011e-05, global = -2.56729e-06, cumulative = 0.000290296
smoothSolver:  Solving for nuTilda, Initial residual = 0.0208305, Final residual = 0.0012956, No Iterations 2
ExecutionTime = 1.54 s  ClockTime = 2 s

Time = 75

smoothSolver:  Solving for Ux, Initial residual = 0.0123985, Final residual = 0.000403319, No Iterations 4
smoothSolver:  Solving for Uy, Initial residual = 0.00970763, Final residual = 0.000411273, No Iterations 4
GAMG:  Solving for p, Initial residual = 0.0248312, Final residual = 0.00213817, No Iterations 6
time step continuity errors : sum local = 1.38641e-05, global = -2.19886e-06, cumulative = 0.000288097
smoothSolver:  Solving for nuTilda, Initial residual = 0.0211213, Final residual = 0.00127529, No Iterations 2
ExecutionTime = 1.56 s  ClockTime = 2 s

Time = 76

smoothSolver:  Solving for Ux, Initial residual = 0.0119105, Final residual = 0.000384188, No Iterations 4
smoothSolver:  Solving for Uy, Initial residual = 0.00921081, Final residual = 0.000387709, No Iterations 4
GAMG:  Solving for p, Initial residual = 0.0236726, Final residual = 0.00233148, No Iterations 5
time step continuity errors : sum local = 1.52386e-05, global = 2.74236e-06, cumulative = 0.00029084
smoothSolver:  Solving for nuTilda, Initial residual = 0.021276, Final residual = 0.00125138, No Iterations 2
ExecutionTime = 1.58 s  ClockTime = 2 s

Time = 77

smoothSolver:  Solving for Ux, Initial residual = 0.0114909, Final residual = 0.000365259, No Iterations 4
smoothSolver:  Solving for Uy, Initial residual = 0.00865768, Final residual = 0.00036333, No Iterations 4
GAMG:  Solving for p, Initial residual = 0.0229891, Final residual = 0.00202308, No Iterations 5
time step continuity errors : sum local = 1.33572e-05, global = 2.53141e-06, cumulative = 0.000293371
smoothSolver:  Solving for nuTilda, Initial residual = 0.0212896, Final residual = 0.00122332, No Iterations 2
ExecutionTime = 1.6 s  ClockTime = 2 s

Time = 78

smoothSolver:  Solving for Ux, Initial residual = 0.0110836, Final residual = 0.000345777, No Iterations 4
smoothSolver:  Solving for Uy, Initial residual = 0.00809655, Final residual = 0.000336832, No Iterations 4
GAMG:  Solving for p, Initial residual = 0.0224212, Final residual = 0.00183746, No Iterations 5
time step continuity errors : sum local = 1.22871e-05, global = 2.448e-06, cumulative = 0.000295819
smoothSolver:  Solving for nuTilda, Initial residual = 0.0211332, Final residual = 0.00119023, No Iterations 2
bounding nuTilda, min: -0.000126081 max: 1.39639 average: 0.162911
ExecutionTime = 1.62 s  ClockTime = 2 s

Time = 79

smoothSolver:  Solving for Ux, Initial residual = 0.0106852, Final residual = 0.000326277, No Iterations 4
smoothSolver:  Solving for Uy, Initial residual = 0.00751288, Final residual = 0.00031, No Iterations 4
GAMG:  Solving for p, Initial residual = 0.0214902, Final residual = 0.00182545, No Iterations 5
time step continuity errors : sum local = 1.23617e-05, global = 2.39918e-06, cumulative = 0.000298218
smoothSolver:  Solving for nuTilda, Initial residual = 0.0206416, Final residual = 0.00115931, No Iterations 2
ExecutionTime = 1.63 s  ClockTime = 2 s

Time = 80

smoothSolver:  Solving for Ux, Initial residual = 0.0102569, Final residual = 0.000307978, No Iterations 4
smoothSolver:  Solving for Uy, Initial residual = 0.00694194, Final residual = 0.000284875, No Iterations 4
GAMG:  Solving for p, Initial residual = 0.0205596, Final residual = 0.00194104, No Iterations 5
time step continuity errors : sum local = 1.32818e-05, global = 2.2443e-06, cumulative = 0.000300463
smoothSolver:  Solving for nuTilda, Initial residual = 0.0198923, Final residual = 0.00112574, No Iterations 2
bounding nuTilda, min: -0.00398181 max: 1.37286 average: 0.161662
ExecutionTime = 1.65 s  ClockTime = 2 s

Time = 81

smoothSolver:  Solving for Ux, Initial residual = 0.0098078, Final residual = 0.000290794, No Iterations 4
smoothSolver:  Solving for Uy, Initial residual = 0.00635495, Final residual = 0.000261426, No Iterations 4
GAMG:  Solving for p, Initial residual = 0.0196488, Final residual = 0.00161384, No Iterations 6
time step continuity errors : sum local = 1.11327e-05, global = -1.01282e-06, cumulative = 0.00029945
smoothSolver:  Solving for nuTilda, Initial residual = 0.0189956, Final residual = 0.00109196, No Iterations 2
ExecutionTime = 1.66 s  ClockTime = 2 s

Time = 82

smoothSolver:  Solving for Ux, Initial residual = 0.00936325, Final residual = 0.000275242, No Iterations 4
smoothSolver:  Solving for Uy, Initial residual = 0.00577454, Final residual = 0.000238816, No Iterations 4
GAMG:  Solving for p, Initial residual = 0.0186586, Final residual = 0.00184875, No Iterations 5
time step continuity errors : sum local = 1.28487e-05, global = 1.01141e-06, cumulative = 0.000300461
smoothSolver:  Solving for nuTilda, Initial residual = 0.0178967, Final residual = 0.00106203, No Iterations 2
ExecutionTime = 1.68 s  ClockTime = 2 s

Time = 83

smoothSolver:  Solving for Ux, Initial residual = 0.00892231, Final residual = 0.000260615, No Iterations 4
smoothSolver:  Solving for Uy, Initial residual = 0.00521894, Final residual = 0.000217718, No Iterations 4
GAMG:  Solving for p, Initial residual = 0.0177807, Final residual = 0.00159358, No Iterations 5
time step continuity errors : sum local = 1.11421e-05, global = 1.32359e-07, cumulative = 0.000300594
smoothSolver:  Solving for nuTilda, Initial residual = 0.0168213, Final residual = 0.00103286, No Iterations 2
ExecutionTime = 1.7 s  ClockTime = 2 s

Time = 84

smoothSolver:  Solving for Ux, Initial residual = 0.00848652, Final residual = 0.00024577, No Iterations 4
smoothSolver:  Solving for Uy, Initial residual = 0.00469873, Final residual = 0.000198282, No Iterations 4
GAMG:  Solving for p, Initial residual = 0.0168617, Final residual = 0.00168139, No Iterations 4
time step continuity errors : sum local = 1.18431e-05, global = 8.20977e-07, cumulative = 0.000301415
smoothSolver:  Solving for nuTilda, Initial residual = 0.015723, Final residual = 0.00100804, No Iterations 2
ExecutionTime = 1.71 s  ClockTime = 2 s

Time = 85

smoothSolver:  Solving for Ux, Initial residual = 0.00802995, Final residual = 0.000230099, No Iterations 4
smoothSolver:  Solving for Uy, Initial residual = 0.00421468, Final residual = 0.000179002, No Iterations 4
GAMG:  Solving for p, Initial residual = 0.0159334, Final residual = 0.00124473, No Iterations 5
time step continuity errors : sum local = 8.8366e-06, global = -2.31481e-07, cumulative = 0.000301183
smoothSolver:  Solving for nuTilda, Initial residual = 0.0147045, Final residual = 0.000985901, No Iterations 2
ExecutionTime = 1.73 s  ClockTime = 2 s

Time = 86

smoothSolver:  Solving for Ux, Initial residual = 0.00757236, Final residual = 0.000216442, No Iterations 4
smoothSolver:  Solving for Uy, Initial residual = 0.00380952, Final residual = 0.00016553, No Iterations 4
GAMG:  Solving for p, Initial residual = 0.0149913, Final residual = 0.00116714, No Iterations 5
time step continuity errors : sum local = 8.37059e-06, global = 2.67411e-07, cumulative = 0.00030145
smoothSolver:  Solving for nuTilda, Initial residual = 0.0137609, Final residual = 0.000965506, No Iterations 2
ExecutionTime = 1.74 s  ClockTime = 2 s

Time = 87

smoothSolver:  Solving for Ux, Initial residual = 0.00711759, Final residual = 0.000203826, No Iterations 4
smoothSolver:  Solving for Uy, Initial residual = 0.00346297, Final residual = 0.00015435, No Iterations 4
GAMG:  Solving for p, Initial residual = 0.0139691, Final residual = 0.00120383, No Iterations 5
time step continuity errors : sum local = 8.71551e-06, global = 5.67251e-07, cumulative = 0.000302018
smoothSolver:  Solving for nuTilda, Initial residual = 0.0129962, Final residual = 0.000947251, No Iterations 2
ExecutionTime = 1.76 s  ClockTime = 2 s

Time = 88

smoothSolver:  Solving for Ux, Initial residual = 0.00667949, Final residual = 0.000191252, No Iterations 4
smoothSolver:  Solving for Uy, Initial residual = 0.00316119, Final residual = 0.000144733, No Iterations 4
GAMG:  Solving for p, Initial residual = 0.0129598, Final residual = 0.00100167, No Iterations 6
time step continuity errors : sum local = 7.30871e-06, global = -8.78903e-08, cumulative = 0.00030193
smoothSolver:  Solving for nuTilda, Initial residual = 0.0123718, Final residual = 0.000933633, No Iterations 2
ExecutionTime = 1.78 s  ClockTime = 2 s

Time = 89

smoothSolver:  Solving for Ux, Initial residual = 0.00625116, Final residual = 0.000178957, No Iterations 4
smoothSolver:  Solving for Uy, Initial residual = 0.002882, Final residual = 0.000136478, No Iterations 4
GAMG:  Solving for p, Initial residual = 0.0119025, Final residual = 0.000965485, No Iterations 6
time step continuity errors : sum local = 7.08784e-06, global = 1.79812e-07, cumulative = 0.00030211
smoothSolver:  Solving for nuTilda, Initial residual = 0.0118743, Final residual = 0.000918828, No Iterations 2
ExecutionTime = 1.8 s  ClockTime = 2 s

Time = 90

smoothSolver:  Solving for Ux, Initial residual = 0.00585019, Final residual = 0.00016652, No Iterations 4
smoothSolver:  Solving for Uy, Initial residual = 0.00264763, Final residual = 0.000129495, No Iterations 4
GAMG:  Solving for p, Initial residual = 0.0108632, Final residual = 0.00104507, No Iterations 5
time step continuity errors : sum local = 7.70685e-06, global = -1.03862e-06, cumulative = 0.000301071
smoothSolver:  Solving for nuTilda, Initial residual = 0.0115286, Final residual = 0.000906108, No Iterations 2
ExecutionTime = 1.81 s  ClockTime = 2 s

Time = 91

smoothSolver:  Solving for Ux, Initial residual = 0.00545267, Final residual = 0.000154185, No Iterations 4
smoothSolver:  Solving for Uy, Initial residual = 0.00245366, Final residual = 0.000122291, No Iterations 4
GAMG:  Solving for p, Initial residual = 0.00986574, Final residual = 0.000938584, No Iterations 5
time step continuity errors : sum local = 6.9532e-06, global = -1.0629e-06, cumulative = 0.000300008
smoothSolver:  Solving for nuTilda, Initial residual = 0.0112796, Final residual = 0.000896429, No Iterations 2
ExecutionTime = 1.83 s  ClockTime = 2 s

Time = 92

smoothSolver:  Solving for Ux, Initial residual = 0.0050967, Final residual = 0.000142438, No Iterations 4
smoothSolver:  Solving for Uy, Initial residual = 0.00226698, Final residual = 0.000115619, No Iterations 4
GAMG:  Solving for p, Initial residual = 0.00910353, Final residual = 0.0007198, No Iterations 6
time step continuity errors : sum local = 5.35894e-06, global = 1.09721e-06, cumulative = 0.000301105
smoothSolver:  Solving for nuTilda, Initial residual = 0.0111806, Final residual = 0.000888192, No Iterations 2
ExecutionTime = 1.85 s  ClockTime = 2 s

Time = 93

smoothSolver:  Solving for Ux, Initial residual = 0.00476945, Final residual = 0.000131823, No Iterations 4
smoothSolver:  Solving for Uy, Initial residual = 0.00209078, Final residual = 0.000109489, No Iterations 4
GAMG:  Solving for p, Initial residual = 0.008423, Final residual = 0.000718566, No Iterations 6
time step continuity errors : sum local = 5.37715e-06, global = 1.26471e-06, cumulative = 0.00030237
smoothSolver:  Solving for nuTilda, Initial residual = 0.0111381, Final residual = 0.000880298, No Iterations 2
ExecutionTime = 1.87 s  ClockTime = 2 s

Time = 94

smoothSolver:  Solving for Ux, Initial residual = 0.00447358, Final residual = 0.000447025, No Iterations 2
smoothSolver:  Solving for Uy, Initial residual = 0.00197706, Final residual = 0.000103127, No Iterations 4
GAMG:  Solving for p, Initial residual = 0.00774484, Final residual = 0.000630191, No Iterations 8
time step continuity errors : sum local = 4.74009e-06, global = 1.1348e-06, cumulative = 0.000303505
smoothSolver:  Solving for nuTilda, Initial residual = 0.0111723, Final residual = 0.000874901, No Iterations 2
ExecutionTime = 1.88 s  ClockTime = 2 s

Time = 95

smoothSolver:  Solving for Ux, Initial residual = 0.00425551, Final residual = 0.000118325, No Iterations 4
smoothSolver:  Solving for Uy, Initial residual = 0.00188419, Final residual = 9.73681e-05, No Iterations 4
GAMG:  Solving for p, Initial residual = 0.00694968, Final residual = 0.000645031, No Iterations 6
time step continuity errors : sum local = 4.88444e-06, global = 1.19376e-06, cumulative = 0.000304699
smoothSolver:  Solving for nuTilda, Initial residual = 0.0112905, Final residual = 0.000871976, No Iterations 2
ExecutionTime = 1.9 s  ClockTime = 2 s

Time = 96

smoothSolver:  Solving for Ux, Initial residual = 0.00401874, Final residual = 0.000401536, No Iterations 2
smoothSolver:  Solving for Uy, Initial residual = 0.00178435, Final residual = 9.08045e-05, No Iterations 4
GAMG:  Solving for p, Initial residual = 0.00621989, Final residual = 0.000617606, No Iterations 6
time step continuity errors : sum local = 4.69361e-06, global = 1.13053e-06, cumulative = 0.000305829
smoothSolver:  Solving for nuTilda, Initial residual = 0.0114571, Final residual = 0.000869646, No Iterations 2
ExecutionTime = 1.91 s  ClockTime = 2 s

Time = 97

smoothSolver:  Solving for Ux, Initial residual = 0.00382715, Final residual = 0.000104344, No Iterations 4
smoothSolver:  Solving for Uy, Initial residual = 0.00167728, Final residual = 8.45153e-05, No Iterations 4
GAMG:  Solving for p, Initial residual = 0.0058082, Final residual = 0.00053039, No Iterations 5
time step continuity errors : sum local = 4.04516e-06, global = -1.15992e-06, cumulative = 0.000304669
smoothSolver:  Solving for nuTilda, Initial residual = 0.0116429, Final residual = 0.000867065, No Iterations 2
ExecutionTime = 1.93 s  ClockTime = 2 s

Time = 98

smoothSolver:  Solving for Ux, Initial residual = 0.00361872, Final residual = 0.000351738, No Iterations 2
smoothSolver:  Solving for Uy, Initial residual = 0.00157012, Final residual = 7.80913e-05, No Iterations 4
GAMG:  Solving for p, Initial residual = 0.00535814, Final residual = 0.000504445, No Iterations 5
time step continuity errors : sum local = 3.85521e-06, global = -1.13463e-06, cumulative = 0.000303535
smoothSolver:  Solving for nuTilda, Initial residual = 0.0118628, Final residual = 0.000866694, No Iterations 2
ExecutionTime = 1.95 s  ClockTime = 2 s

Time = 99

smoothSolver:  Solving for Ux, Initial residual = 0.00346481, Final residual = 0.000333385, No Iterations 2
smoothSolver:  Solving for Uy, Initial residual = 0.00145917, Final residual = 7.19256e-05, No Iterations 4
GAMG:  Solving for p, Initial residual = 0.00512289, Final residual = 0.000510215, No Iterations 5
time step continuity errors : sum local = 3.90915e-06, global = -1.10765e-06, cumulative = 0.000302427
smoothSolver:  Solving for nuTilda, Initial residual = 0.0121254, Final residual = 0.000866069, No Iterations 2
ExecutionTime = 1.97 s  ClockTime = 2 s

Time = 100

smoothSolver:  Solving for Ux, Initial residual = 0.00331506, Final residual = 0.000316976, No Iterations 2
smoothSolver:  Solving for Uy, Initial residual = 0.0013497, Final residual = 6.56767e-05, No Iterations 4
GAMG:  Solving for p, Initial residual = 0.00480262, Final residual = 0.00045963, No Iterations 6
time step continuity errors : sum local = 3.53037e-06, global = 8.8611e-07, cumulative = 0.000303313
smoothSolver:  Solving for nuTilda, Initial residual = 0.01237, Final residual = 0.000864931, No Iterations 2
ExecutionTime = 2.08 s  ClockTime = 2 s

Time = 101

smoothSolver:  Solving for Ux, Initial residual = 0.00316653, Final residual = 0.000302813, No Iterations 2
smoothSolver:  Solving for Uy, Initial residual = 0.00124821, Final residual = 6.05872e-05, No Iterations 4
GAMG:  Solving for p, Initial residual = 0.00452439, Final residual = 0.000390096, No Iterations 7
time step continuity errors : sum local = 3.00176e-06, global = -8.20041e-07, cumulative = 0.000302493
smoothSolver:  Solving for nuTilda, Initial residual = 0.0126008, Final residual = 0.000864728, No Iterations 2
ExecutionTime = 2.09 s  ClockTime = 2 s

Time = 102

smoothSolver:  Solving for Ux, Initial residual = 0.00301982, Final residual = 0.000289896, No Iterations 2
smoothSolver:  Solving for Uy, Initial residual = 0.00116743, Final residual = 5.63537e-05, No Iterations 4
GAMG:  Solving for p, Initial residual = 0.00423143, Final residual = 0.000408413, No Iterations 6
time step continuity errors : sum local = 3.14876e-06, global = 7.8777e-07, cumulative = 0.000303281
smoothSolver:  Solving for nuTilda, Initial residual = 0.0128726, Final residual = 0.000863149, No Iterations 2
ExecutionTime = 2.11 s  ClockTime = 3 s

Time = 103

smoothSolver:  Solving for Ux, Initial residual = 0.00288493, Final residual = 0.000277147, No Iterations 2
smoothSolver:  Solving for Uy, Initial residual = 0.0010871, Final residual = 5.26444e-05, No Iterations 4
GAMG:  Solving for p, Initial residual = 0.00400982, Final residual = 0.00038691, No Iterations 6
time step continuity errors : sum local = 2.98673e-06, global = 7.12942e-07, cumulative = 0.000303994
smoothSolver:  Solving for nuTilda, Initial residual = 0.013122, Final residual = 0.000860926, No Iterations 2
ExecutionTime = 2.13 s  ClockTime = 3 s

Time = 104

smoothSolver:  Solving for Ux, Initial residual = 0.00275438, Final residual = 0.000265399, No Iterations 2
smoothSolver:  Solving for Uy, Initial residual = 0.00101681, Final residual = 4.99081e-05, No Iterations 4
GAMG:  Solving for p, Initial residual = 0.00378433, Final residual = 0.000359213, No Iterations 6
time step continuity errors : sum local = 2.7767e-06, global = 6.35405e-07, cumulative = 0.000304629
smoothSolver:  Solving for nuTilda, Initial residual = 0.0133684, Final residual = 0.000858766, No Iterations 2
ExecutionTime = 2.14 s  ClockTime = 3 s

Time = 105

smoothSolver:  Solving for Ux, Initial residual = 0.00262452, Final residual = 0.000254493, No Iterations 2
smoothSolver:  Solving for Uy, Initial residual = 0.000957818, Final residual = 4.70524e-05, No Iterations 4
GAMG:  Solving for p, Initial residual = 0.00356027, Final residual = 0.000343166, No Iterations 5
time step continuity errors : sum local = 2.65656e-06, global = -7.53357e-07, cumulative = 0.000303876
smoothSolver:  Solving for nuTilda, Initial residual = 0.0136235, Final residual = 0.000855151, No Iterations 2
ExecutionTime = 2.16 s  ClockTime = 3 s

Time = 106

smoothSolver:  Solving for Ux, Initial residual = 0.00249502, Final residual = 0.000243634, No Iterations 2
smoothSolver:  Solving for Uy, Initial residual = 0.000902812, Final residual = 4.40454e-05, No Iterations 4
GAMG:  Solving for p, Initial residual = 0.00333141, Final residual = 0.000319962, No Iterations 5
time step continuity errors : sum local = 2.48097e-06, global = -6.59113e-07, cumulative = 0.000303217
smoothSolver:  Solving for nuTilda, Initial residual = 0.0138564, Final residual = 0.000851169, No Iterations 2
ExecutionTime = 2.18 s  ClockTime = 3 s

Time = 107

smoothSolver:  Solving for Ux, Initial residual = 0.00236689, Final residual = 0.000233967, No Iterations 2
smoothSolver:  Solving for Uy, Initial residual = 0.0008417, Final residual = 4.16894e-05, No Iterations 4
GAMG:  Solving for p, Initial residual = 0.00313322, Final residual = 0.000307974, No Iterations 5
time step continuity errors : sum local = 2.39104e-06, global = -3.89783e-07, cumulative = 0.000302827
smoothSolver:  Solving for nuTilda, Initial residual = 0.0141179, Final residual = 0.000846853, No Iterations 2
ExecutionTime = 2.19 s  ClockTime = 3 s

Time = 108

smoothSolver:  Solving for Ux, Initial residual = 0.00224227, Final residual = 6.45289e-05, No Iterations 4
smoothSolver:  Solving for Uy, Initial residual = 0.000793158, Final residual = 3.9827e-05, No Iterations 4
GAMG:  Solving for p, Initial residual = 0.00297079, Final residual = 0.000259185, No Iterations 5
time step continuity errors : sum local = 2.01412e-06, global = -4.77748e-07, cumulative = 0.000302349
smoothSolver:  Solving for nuTilda, Initial residual = 0.01437, Final residual = 0.000840864, No Iterations 2
ExecutionTime = 2.21 s  ClockTime = 3 s

Time = 109

smoothSolver:  Solving for Ux, Initial residual = 0.00210982, Final residual = 6.06727e-05, No Iterations 4
smoothSolver:  Solving for Uy, Initial residual = 0.000747788, Final residual = 3.81248e-05, No Iterations 4
GAMG:  Solving for p, Initial residual = 0.002811, Final residual = 0.000251442, No Iterations 5
time step continuity errors : sum local = 1.95386e-06, global = -4.69395e-07, cumulative = 0.00030188
smoothSolver:  Solving for nuTilda, Initial residual = 0.0146279, Final residual = 0.000834647, No Iterations 2
ExecutionTime = 2.22 s  ClockTime = 3 s

Time = 110

smoothSolver:  Solving for Ux, Initial residual = 0.00198481, Final residual = 0.000198412, No Iterations 2
smoothSolver:  Solving for Uy, Initial residual = 0.000706589, Final residual = 3.6191e-05, No Iterations 4
GAMG:  Solving for p, Initial residual = 0.00264157, Final residual = 0.000205013, No Iterations 7
time step continuity errors : sum local = 1.59339e-06, global = -3.55193e-07, cumulative = 0.000301525
smoothSolver:  Solving for nuTilda, Initial residual = 0.0149726, Final residual = 0.000825501, No Iterations 2
ExecutionTime = 2.24 s  ClockTime = 3 s

Time = 111

smoothSolver:  Solving for Ux, Initial residual = 0.00188032, Final residual = 5.6019e-05, No Iterations 4
smoothSolver:  Solving for Uy, Initial residual = 0.000673121, Final residual = 3.41291e-05, No Iterations 4
GAMG:  Solving for p, Initial residual = 0.00244847, Final residual = 0.000232464, No Iterations 5
time step continuity errors : sum local = 1.81021e-06, global = -2.48933e-07, cumulative = 0.000301276
smoothSolver:  Solving for nuTilda, Initial residual = 0.0153259, Final residual = 0.000813931, No Iterations 2
ExecutionTime = 2.25 s  ClockTime = 3 s

Time = 112

smoothSolver:  Solving for Ux, Initial residual = 0.00177888, Final residual = 5.31194e-05, No Iterations 4
smoothSolver:  Solving for Uy, Initial residual = 0.000640439, Final residual = 3.18011e-05, No Iterations 4
GAMG:  Solving for p, Initial residual = 0.00229061, Final residual = 0.000203492, No Iterations 5
time step continuity errors : sum local = 1.5876e-06, global = -1.87185e-07, cumulative = 0.000301088
smoothSolver:  Solving for nuTilda, Initial residual = 0.0157124, Final residual = 0.000800166, No Iterations 2
ExecutionTime = 2.27 s  ClockTime = 3 s

Time = 113

smoothSolver:  Solving for Ux, Initial residual = 0.00168688, Final residual = 5.02401e-05, No Iterations 4
smoothSolver:  Solving for Uy, Initial residual = 0.000610329, Final residual = 3.00166e-05, No Iterations 4
GAMG:  Solving for p, Initial residual = 0.00217495, Final residual = 0.000191806, No Iterations 5
time step continuity errors : sum local = 1.49876e-06, global = -1.67893e-07, cumulative = 0.000300921
smoothSolver:  Solving for nuTilda, Initial residual = 0.016156, Final residual = 0.000782595, No Iterations 2
ExecutionTime = 2.29 s  ClockTime = 3 s

Time = 114

smoothSolver:  Solving for Ux, Initial residual = 0.00160069, Final residual = 4.73677e-05, No Iterations 4
smoothSolver:  Solving for Uy, Initial residual = 0.000585922, Final residual = 2.83537e-05, No Iterations 4
GAMG:  Solving for p, Initial residual = 0.00209151, Final residual = 0.000201304, No Iterations 5
time step continuity errors : sum local = 1.57491e-06, global = -1.33235e-07, cumulative = 0.000300787
smoothSolver:  Solving for nuTilda, Initial residual = 0.0166247, Final residual = 0.00076304, No Iterations 2
ExecutionTime = 2.31 s  ClockTime = 3 s

Time = 115

smoothSolver:  Solving for Ux, Initial residual = 0.0015227, Final residual = 4.44242e-05, No Iterations 4
smoothSolver:  Solving for Uy, Initial residual = 0.000563447, Final residual = 2.69255e-05, No Iterations 4
GAMG:  Solving for p, Initial residual = 0.00204738, Final residual = 0.00015841, No Iterations 7
time step continuity errors : sum local = 1.24071e-06, global = 4.41489e-08, cumulative = 0.000300831
smoothSolver:  Solving for nuTilda, Initial residual = 0.0171521, Final residual = 0.00074108, No Iterations 2
ExecutionTime = 2.32 s  ClockTime = 3 s

Time = 116

smoothSolver:  Solving for Ux, Initial residual = 0.00145035, Final residual = 4.14795e-05, No Iterations 4
smoothSolver:  Solving for Uy, Initial residual = 0.000541978, Final residual = 2.59972e-05, No Iterations 4
GAMG:  Solving for p, Initial residual = 0.00196748, Final residual = 0.000182287, No Iterations 5
time step continuity errors : sum local = 1.42926e-06, global = -1.03242e-07, cumulative = 0.000300728
smoothSolver:  Solving for nuTilda, Initial residual = 0.0177089, Final residual = 0.000716481, No Iterations 2
ExecutionTime = 2.33 s  ClockTime = 3 s

Time = 117

smoothSolver:  Solving for Ux, Initial residual = 0.00138291, Final residual = 0.000136228, No Iterations 2
smoothSolver:  Solving for Uy, Initial residual = 0.000527396, Final residual = 2.50378e-05, No Iterations 4
GAMG:  Solving for p, Initial residual = 0.0018702, Final residual = 0.000184474, No Iterations 5
time step continuity errors : sum local = 1.44835e-06, global = -2.30922e-07, cumulative = 0.000300497
smoothSolver:  Solving for nuTilda, Initial residual = 0.0182631, Final residual = 0.000689581, No Iterations 2
ExecutionTime = 2.35 s  ClockTime = 3 s

Time = 118

smoothSolver:  Solving for Ux, Initial residual = 0.00132666, Final residual = 0.000130456, No Iterations 2
smoothSolver:  Solving for Uy, Initial residual = 0.000517387, Final residual = 2.40544e-05, No Iterations 4
GAMG:  Solving for p, Initial residual = 0.00176275, Final residual = 0.000171256, No Iterations 5
time step continuity errors : sum local = 1.34731e-06, global = -1.81767e-08, cumulative = 0.000300479
smoothSolver:  Solving for nuTilda, Initial residual = 0.018816, Final residual = 0.000660919, No Iterations 2
ExecutionTime = 2.37 s  ClockTime = 3 s

Time = 119

smoothSolver:  Solving for Ux, Initial residual = 0.00127776, Final residual = 0.000124697, No Iterations 2
smoothSolver:  Solving for Uy, Initial residual = 0.000509398, Final residual = 2.33519e-05, No Iterations 4
GAMG:  Solving for p, Initial residual = 0.00164327, Final residual = 0.000145083, No Iterations 5
time step continuity errors : sum local = 1.14357e-06, global = -6.58999e-08, cumulative = 0.000300413
smoothSolver:  Solving for nuTilda, Initial residual = 0.0193411, Final residual = 0.000630371, No Iterations 2
ExecutionTime = 2.38 s  ClockTime = 3 s

Time = 120

smoothSolver:  Solving for Ux, Initial residual = 0.00123059, Final residual = 0.000118778, No Iterations 2
smoothSolver:  Solving for Uy, Initial residual = 0.000501334, Final residual = 2.29227e-05, No Iterations 4
GAMG:  Solving for p, Initial residual = 0.00155558, Final residual = 0.000120184, No Iterations 5
time step continuity errors : sum local = 9.48623e-07, global = -2.02958e-07, cumulative = 0.00030021
smoothSolver:  Solving for nuTilda, Initial residual = 0.0198247, Final residual = 0.000597105, No Iterations 2
ExecutionTime = 2.4 s  ClockTime = 3 s

Time = 121

smoothSolver:  Solving for Ux, Initial residual = 0.00118355, Final residual = 0.000112824, No Iterations 2
smoothSolver:  Solving for Uy, Initial residual = 0.000495297, Final residual = 2.27377e-05, No Iterations 4
GAMG:  Solving for p, Initial residual = 0.00148271, Final residual = 0.000113432, No Iterations 5
time step continuity errors : sum local = 8.96126e-07, global = -2.4102e-07, cumulative = 0.000299969
smoothSolver:  Solving for nuTilda, Initial residual = 0.0201991, Final residual = 0.000560687, No Iterations 2
ExecutionTime = 2.41 s  ClockTime = 3 s

Time = 122

smoothSolver:  Solving for Ux, Initial residual = 0.00114121, Final residual = 0.000107164, No Iterations 2
smoothSolver:  Solving for Uy, Initial residual = 0.000493515, Final residual = 2.2481e-05, No Iterations 4
GAMG:  Solving for p, Initial residual = 0.00140746, Final residual = 0.000118647, No Iterations 5
time step continuity errors : sum local = 9.37952e-07, global = -2.49613e-07, cumulative = 0.00029972
smoothSolver:  Solving for nuTilda, Initial residual = 0.0203697, Final residual = 0.000521652, No Iterations 2
ExecutionTime = 2.43 s  ClockTime = 3 s

Time = 123

smoothSolver:  Solving for Ux, Initial residual = 0.00110429, Final residual = 0.000101909, No Iterations 2
smoothSolver:  Solving for Uy, Initial residual = 0.00049268, Final residual = 2.20191e-05, No Iterations 4
GAMG:  Solving for p, Initial residual = 0.0013343, Final residual = 0.000124304, No Iterations 5
time step continuity errors : sum local = 9.83426e-07, global = -2.28778e-07, cumulative = 0.000299491
smoothSolver:  Solving for nuTilda, Initial residual = 0.0203395, Final residual = 0.000480418, No Iterations 2
ExecutionTime = 2.45 s  ClockTime = 3 s

Time = 124

smoothSolver:  Solving for Ux, Initial residual = 0.00107077, Final residual = 9.71746e-05, No Iterations 2
smoothSolver:  Solving for Uy, Initial residual = 0.000490919, Final residual = 2.15067e-05, No Iterations 4
GAMG:  Solving for p, Initial residual = 0.00127006, Final residual = 0.000124678, No Iterations 5
time step continuity errors : sum local = 9.8733e-07, global = -1.81727e-07, cumulative = 0.000299309
smoothSolver:  Solving for nuTilda, Initial residual = 0.0200494, Final residual = 0.000437243, No Iterations 2
ExecutionTime = 2.46 s  ClockTime = 3 s

Time = 125

smoothSolver:  Solving for Ux, Initial residual = 0.00103887, Final residual = 9.30072e-05, No Iterations 2
smoothSolver:  Solving for Uy, Initial residual = 0.000488905, Final residual = 2.11324e-05, No Iterations 4
GAMG:  Solving for p, Initial residual = 0.00123868, Final residual = 0.000122912, No Iterations 5
time step continuity errors : sum local = 9.74364e-07, global = -1.50037e-07, cumulative = 0.000299159
smoothSolver:  Solving for nuTilda, Initial residual = 0.0193822, Final residual = 0.000393595, No Iterations 2
ExecutionTime = 2.48 s  ClockTime = 3 s

Time = 126

smoothSolver:  Solving for Ux, Initial residual = 0.00100904, Final residual = 8.95775e-05, No Iterations 2
smoothSolver:  Solving for Uy, Initial residual = 0.000487847, Final residual = 2.07788e-05, No Iterations 4
GAMG:  Solving for p, Initial residual = 0.00122455, Final residual = 0.00012093, No Iterations 5
time step continuity errors : sum local = 9.59606e-07, global = -1.5153e-07, cumulative = 0.000299008
smoothSolver:  Solving for nuTilda, Initial residual = 0.0183772, Final residual = 0.000351148, No Iterations 2
ExecutionTime = 2.49 s  ClockTime = 3 s

Time = 127

smoothSolver:  Solving for Ux, Initial residual = 0.000983494, Final residual = 8.64903e-05, No Iterations 2
smoothSolver:  Solving for Uy, Initial residual = 0.000485787, Final residual = 2.04868e-05, No Iterations 4
GAMG:  Solving for p, Initial residual = 0.00121291, Final residual = 0.000118347, No Iterations 5
time step continuity errors : sum local = 9.39925e-07, global = -1.57896e-07, cumulative = 0.00029885
smoothSolver:  Solving for nuTilda, Initial residual = 0.017056, Final residual = 0.000311741, No Iterations 2
ExecutionTime = 2.51 s  ClockTime = 3 s

Time = 128

smoothSolver:  Solving for Ux, Initial residual = 0.000959588, Final residual = 8.35096e-05, No Iterations 2
smoothSolver:  Solving for Uy, Initial residual = 0.00048348, Final residual = 2.02831e-05, No Iterations 4
GAMG:  Solving for p, Initial residual = 0.00119096, Final residual = 0.00011489, No Iterations 5
time step continuity errors : sum local = 9.13174e-07, global = -1.44734e-07, cumulative = 0.000298705
smoothSolver:  Solving for nuTilda, Initial residual = 0.0153911, Final residual = 0.000276607, No Iterations 2
ExecutionTime = 2.52 s  ClockTime = 3 s

Time = 129

smoothSolver:  Solving for Ux, Initial residual = 0.000935641, Final residual = 8.05621e-05, No Iterations 2
smoothSolver:  Solving for Uy, Initial residual = 0.000482036, Final residual = 2.01865e-05, No Iterations 4
GAMG:  Solving for p, Initial residual = 0.00116336, Final residual = 0.000111926, No Iterations 5
time step continuity errors : sum local = 8.90248e-07, global = -1.00307e-07, cumulative = 0.000298605
smoothSolver:  Solving for nuTilda, Initial residual = 0.0135754, Final residual = 0.000246487, No Iterations 2
ExecutionTime = 2.54 s  ClockTime = 3 s

Time = 130

smoothSolver:  Solving for Ux, Initial residual = 0.000911305, Final residual = 7.78845e-05, No Iterations 2
smoothSolver:  Solving for Uy, Initial residual = 0.000481662, Final residual = 2.0096e-05, No Iterations 4
GAMG:  Solving for p, Initial residual = 0.00113789, Final residual = 0.000105342, No Iterations 5
time step continuity errors : sum local = 8.38465e-07, global = -5.03444e-08, cumulative = 0.000298554
smoothSolver:  Solving for nuTilda, Initial residual = 0.0116592, Final residual = 0.000221548, No Iterations 2
ExecutionTime = 2.56 s  ClockTime = 3 s

Time = 131

smoothSolver:  Solving for Ux, Initial residual = 0.00088745, Final residual = 7.53953e-05, No Iterations 2
smoothSolver:  Solving for Uy, Initial residual = 0.000480604, Final residual = 2.00063e-05, No Iterations 4
GAMG:  Solving for p, Initial residual = 0.00111406, Final residual = 9.77825e-05, No Iterations 5
time step continuity errors : sum local = 7.7884e-07, global = -5.55521e-09, cumulative = 0.000298549
smoothSolver:  Solving for nuTilda, Initial residual = 0.00976071, Final residual = 0.000201444, No Iterations 2
ExecutionTime = 2.57 s  ClockTime = 3 s

Time = 132

smoothSolver:  Solving for Ux, Initial residual = 0.000864619, Final residual = 7.31003e-05, No Iterations 2
smoothSolver:  Solving for Uy, Initial residual = 0.000478039, Final residual = 1.99691e-05, No Iterations 4
GAMG:  Solving for p, Initial residual = 0.00109255, Final residual = 9.40651e-05, No Iterations 5
time step continuity errors : sum local = 7.49755e-07, global = 2.96351e-08, cumulative = 0.000298578
smoothSolver:  Solving for nuTilda, Initial residual = 0.00806569, Final residual = 0.000185343, No Iterations 2
ExecutionTime = 2.59 s  ClockTime = 3 s

Time = 133

smoothSolver:  Solving for Ux, Initial residual = 0.000843412, Final residual = 7.09601e-05, No Iterations 2
smoothSolver:  Solving for Uy, Initial residual = 0.000475859, Final residual = 1.99458e-05, No Iterations 4
GAMG:  Solving for p, Initial residual = 0.00107331, Final residual = 9.37523e-05, No Iterations 5
time step continuity errors : sum local = 7.47792e-07, global = 5.32095e-08, cumulative = 0.000298632
smoothSolver:  Solving for nuTilda, Initial residual = 0.00655298, Final residual = 0.000172255, No Iterations 2
ExecutionTime = 2.61 s  ClockTime = 3 s

Time = 134

smoothSolver:  Solving for Ux, Initial residual = 0.000824219, Final residual = 6.89544e-05, No Iterations 2
smoothSolver:  Solving for Uy, Initial residual = 0.000473861, Final residual = 1.9867e-05, No Iterations 4
GAMG:  Solving for p, Initial residual = 0.00104844, Final residual = 9.6068e-05, No Iterations 5
time step continuity errors : sum local = 7.66815e-07, global = 8.56602e-08, cumulative = 0.000298717
smoothSolver:  Solving for nuTilda, Initial residual = 0.00530128, Final residual = 0.000161412, No Iterations 2
ExecutionTime = 2.62 s  ClockTime = 3 s

Time = 135

[...]

Time = 300

smoothSolver:  Solving for Ux, Initial residual = 1.42932e-05, Final residual = 1.3562e-06, No Iterations 2
smoothSolver:  Solving for Uy, Initial residual = 6.58179e-06, Final residual = 2.97661e-07, No Iterations 4
GAMG:  Solving for p, Initial residual = 1.50271e-05, Final residual = 1.21427e-06, No Iterations 5
time step continuity errors : sum local = 1.00717e-08, global = 1.84853e-09, cumulative = 0.000296332
smoothSolver:  Solving for nuTilda, Initial residual = 2.19736e-05, Final residual = 1.95874e-06, No Iterations 2
ExecutionTime = 5.61 s  ClockTime = 6 s

Time = 301

smoothSolver:  Solving for Ux, Initial residual = 1.39369e-05, Final residual = 1.32383e-06, No Iterations 2
smoothSolver:  Solving for Uy, Initial residual = 6.43964e-06, Final residual = 2.91613e-07, No Iterations 4
GAMG:  Solving for p, Initial residual = 1.47769e-05, Final residual = 1.39579e-06, No Iterations 4
time step continuity errors : sum local = 1.15774e-08, global = -2.18621e-09, cumulative = 0.00029633
smoothSolver:  Solving for nuTilda, Initial residual = 2.14331e-05, Final residual = 1.9105e-06, No Iterations 2
ExecutionTime = 5.62 s  ClockTime = 6 s

Time = 302

smoothSolver:  Solving for Ux, Initial residual = 1.35983e-05, Final residual = 1.28748e-06, No Iterations 2
smoothSolver:  Solving for Uy, Initial residual = 6.26327e-06, Final residual = 2.82154e-07, No Iterations 4
GAMG:  Solving for p, Initial residual = 1.43424e-05, Final residual = 1.40741e-06, No Iterations 4
time step continuity errors : sum local = 1.1674e-08, global = -2.5379e-09, cumulative = 0.000296328
smoothSolver:  Solving for nuTilda, Initial residual = 2.09044e-05, Final residual = 1.86327e-06, No Iterations 2
ExecutionTime = 5.64 s  ClockTime = 6 s

Time = 303

smoothSolver:  Solving for Ux, Initial residual = 1.32618e-05, Final residual = 1.25368e-06, No Iterations 2
smoothSolver:  Solving for Uy, Initial residual = 6.09926e-06, Final residual = 2.74326e-07, No Iterations 4
GAMG:  Solving for p, Initial residual = 1.4016e-05, Final residual = 1.19783e-06, No Iterations 5
time step continuity errors : sum local = 9.93575e-09, global = 2.20675e-09, cumulative = 0.00029633
smoothSolver:  Solving for nuTilda, Initial residual = 2.03839e-05, Final residual = 1.81693e-06, No Iterations 2
ExecutionTime = 5.66 s  ClockTime = 6 s

Time = 304

smoothSolver:  Solving for Ux, Initial residual = 1.29257e-05, Final residual = 1.22521e-06, No Iterations 2
smoothSolver:  Solving for Uy, Initial residual = 5.97248e-06, Final residual = 2.69896e-07, No Iterations 4
GAMG:  Solving for p, Initial residual = 1.36176e-05, Final residual = 1.09812e-06, No Iterations 5
time step continuity errors : sum local = 9.1088e-09, global = 1.68551e-09, cumulative = 0.000296332
smoothSolver:  Solving for nuTilda, Initial residual = 1.98737e-05, Final residual = 1.77165e-06, No Iterations 2
ExecutionTime = 5.67 s  ClockTime = 6 s

Time = 305

smoothSolver:  Solving for Ux, Initial residual = 1.26046e-05, Final residual = 1.19599e-06, No Iterations 2
smoothSolver:  Solving for Uy, Initial residual = 5.84125e-06, Final residual = 2.64344e-07, No Iterations 4
GAMG:  Solving for p, Initial residual = 1.33898e-05, Final residual = 1.26185e-06, No Iterations 4
time step continuity errors : sum local = 1.04671e-08, global = -1.97542e-09, cumulative = 0.00029633
smoothSolver:  Solving for nuTilda, Initial residual = 1.93784e-05, Final residual = 1.72749e-06, No Iterations 2
ExecutionTime = 5.69 s  ClockTime = 6 s

Time = 306

smoothSolver:  Solving for Ux, Initial residual = 1.22994e-05, Final residual = 1.16334e-06, No Iterations 2
smoothSolver:  Solving for Uy, Initial residual = 5.68001e-06, Final residual = 2.55746e-07, No Iterations 4
GAMG:  Solving for p, Initial residual = 1.2985e-05, Final residual = 1.27405e-06, No Iterations 4
time step continuity errors : sum local = 1.05684e-08, global = -2.29036e-09, cumulative = 0.000296327
smoothSolver:  Solving for nuTilda, Initial residual = 1.88981e-05, Final residual = 1.68433e-06, No Iterations 2
ExecutionTime = 5.7 s  ClockTime = 6 s

Time = 307

smoothSolver:  Solving for Ux, Initial residual = 1.1996e-05, Final residual = 1.13305e-06, No Iterations 2
smoothSolver:  Solving for Uy, Initial residual = 5.5308e-06, Final residual = 2.4863e-07, No Iterations 4
GAMG:  Solving for p, Initial residual = 1.2699e-05, Final residual = 1.08386e-06, No Iterations 5
time step continuity errors : sum local = 8.9908e-09, global = 2.00493e-09, cumulative = 0.000296329
smoothSolver:  Solving for nuTilda, Initial residual = 1.84288e-05, Final residual = 1.64203e-06, No Iterations 2
ExecutionTime = 5.72 s  ClockTime = 6 s

Time = 308

smoothSolver:  Solving for Ux, Initial residual = 1.16929e-05, Final residual = 1.10757e-06, No Iterations 2
smoothSolver:  Solving for Uy, Initial residual = 5.41565e-06, Final residual = 2.44588e-07, No Iterations 4
GAMG:  Solving for p, Initial residual = 1.23226e-05, Final residual = 9.94391e-07, No Iterations 5
time step continuity errors : sum local = 8.24876e-09, global = 1.53225e-09, cumulative = 0.000296331
smoothSolver:  Solving for nuTilda, Initial residual = 1.79728e-05, Final residual = 1.60073e-06, No Iterations 2
ExecutionTime = 5.73 s  ClockTime = 6 s

Time = 309

smoothSolver:  Solving for Ux, Initial residual = 1.1403e-05, Final residual = 1.08134e-06, No Iterations 2
smoothSolver:  Solving for Uy, Initial residual = 5.29624e-06, Final residual = 2.39538e-07, No Iterations 4
GAMG:  Solving for p, Initial residual = 1.21274e-05, Final residual = 1.14028e-06, No Iterations 4
time step continuity errors : sum local = 9.45908e-09, global = -1.79414e-09, cumulative = 0.000296329
smoothSolver:  Solving for nuTilda, Initial residual = 1.75315e-05, Final residual = 1.56049e-06, No Iterations 2
ExecutionTime = 5.75 s  ClockTime = 6 s

Time = 310

smoothSolver:  Solving for Ux, Initial residual = 1.11274e-05, Final residual = 1.05193e-06, No Iterations 2
smoothSolver:  Solving for Uy, Initial residual = 5.14932e-06, Final residual = 2.31738e-07, No Iterations 4
GAMG:  Solving for p, Initial residual = 1.17653e-05, Final residual = 1.15132e-06, No Iterations 4
time step continuity errors : sum local = 9.55079e-09, global = -2.07885e-09, cumulative = 0.000296327
smoothSolver:  Solving for nuTilda, Initial residual = 1.71026e-05, Final residual = 1.52116e-06, No Iterations 2
ExecutionTime = 5.77 s  ClockTime = 6 s

Time = 311

smoothSolver:  Solving for Ux, Initial residual = 1.08534e-05, Final residual = 1.02462e-06, No Iterations 2
smoothSolver:  Solving for Uy, Initial residual = 5.01308e-06, Final residual = 2.25276e-07, No Iterations 4
GAMG:  Solving for p, Initial residual = 1.15062e-05, Final residual = 9.81171e-07, No Iterations 5
time step continuity errors : sum local = 8.13938e-09, global = 1.81611e-09, cumulative = 0.000296329
smoothSolver:  Solving for nuTilda, Initial residual = 1.66845e-05, Final residual = 1.48265e-06, No Iterations 2
ExecutionTime = 5.78 s  ClockTime = 6 s

Time = 312

smoothSolver:  Solving for Ux, Initial residual = 1.05796e-05, Final residual = 1.00166e-06, No Iterations 2
smoothSolver:  Solving for Uy, Initial residual = 4.90759e-06, Final residual = 2.21581e-07, No Iterations 4
GAMG:  Solving for p, Initial residual = 1.1171e-05, Final residual = 1.11599e-06, No Iterations 4
time step continuity errors : sum local = 9.25789e-09, global = -1.81954e-09, cumulative = 0.000296327
smoothSolver:  Solving for nuTilda, Initial residual = 1.62796e-05, Final residual = 1.44517e-06, No Iterations 2
ExecutionTime = 5.8 s  ClockTime = 6 s

Time = 313

smoothSolver:  Solving for Ux, Initial residual = 1.03221e-05, Final residual = 9.76479e-07, No Iterations 2
smoothSolver:  Solving for Uy, Initial residual = 4.78359e-06, Final residual = 2.15446e-07, No Iterations 4
GAMG:  Solving for p, Initial residual = 1.09322e-05, Final residual = 9.08902e-07, No Iterations 5
time step continuity errors : sum local = 7.54003e-09, global = 1.60699e-09, cumulative = 0.000296329
smoothSolver:  Solving for nuTilda, Initial residual = 1.58834e-05, Final residual = 1.40846e-06, No Iterations 2
ExecutionTime = 5.82 s  ClockTime = 6 s

Time = 314

smoothSolver:  Solving for Ux, Initial residual = 1.00638e-05, Final residual = 9.5328e-07, No Iterations 2
smoothSolver:  Solving for Uy, Initial residual = 4.67653e-06, Final residual = 2.11177e-07, No Iterations 4
GAMG:  Solving for p, Initial residual = 1.0685e-05, Final residual = 1.02909e-06, No Iterations 4
time step continuity errors : sum local = 8.53716e-09, global = -1.67609e-09, cumulative = 0.000296327
smoothSolver:  Solving for nuTilda, Initial residual = 1.55e-05, Final residual = 1.37276e-06, No Iterations 2
ExecutionTime = 5.83 s  ClockTime = 6 s

Time = 315

smoothSolver:  Solving for Ux, Initial residual = 9.81975e-06, Final residual = 9.2809e-07, No Iterations 2
smoothSolver:  Solving for Uy, Initial residual = 4.54968e-06, Final residual = 2.04748e-07, No Iterations 4
GAMG:  Solving for p, Initial residual = 1.04143e-05, Final residual = 1.03367e-06, No Iterations 4
time step continuity errors : sum local = 8.57522e-09, global = -1.88622e-09, cumulative = 0.000296325
smoothSolver:  Solving for nuTilda, Initial residual = 1.51267e-05, Final residual = 1.33792e-06, No Iterations 2
ExecutionTime = 5.85 s  ClockTime = 6 s

Time = 316

smoothSolver:  Solving for Ux, Initial residual = 9.57814e-06, Final residual = 9.04459e-07, No Iterations 2
smoothSolver:  Solving for Uy, Initial residual = 4.43082e-06, Final residual = 1.99215e-07, No Iterations 4
GAMG:  Solving for p, Initial residual = 1.01927e-05, Final residual = 8.71972e-07, No Iterations 5
time step continuity errors : sum local = 7.23389e-09, global = 1.62867e-09, cumulative = 0.000296327
smoothSolver:  Solving for nuTilda, Initial residual = 1.47623e-05, Final residual = 1.30386e-06, No Iterations 2
ExecutionTime = 5.86 s  ClockTime = 6 s

Time = 317

smoothSolver:  Solving for Ux, Initial residual = 9.3372e-06, Final residual = 8.8413e-07, No Iterations 2
smoothSolver:  Solving for Uy, Initial residual = 4.3363e-06, Final residual = 1.95842e-07, No Iterations 4
GAMG:  Solving for p, Initial residual = 9.895e-06, Final residual = 9.81974e-07, No Iterations 4
time step continuity errors : sum local = 8.14654e-09, global = -1.60756e-09, cumulative = 0.000296325
smoothSolver:  Solving for nuTilda, Initial residual = 1.44093e-05, Final residual = 1.27076e-06, No Iterations 2
ExecutionTime = 5.88 s  ClockTime = 6 s

Time = 318

smoothSolver:  Solving for Ux, Initial residual = 9.1105e-06, Final residual = 8.61689e-07, No Iterations 2
smoothSolver:  Solving for Uy, Initial residual = 4.224e-06, Final residual = 1.90221e-07, No Iterations 4
GAMG:  Solving for p, Initial residual = 9.67263e-06, Final residual = 9.71124e-07, No Iterations 4
time step continuity errors : sum local = 8.05661e-09, global = -1.77161e-09, cumulative = 0.000296323
smoothSolver:  Solving for nuTilda, Initial residual = 1.40652e-05, Final residual = 1.23846e-06, No Iterations 2
ExecutionTime = 5.89 s  ClockTime = 6 s

Time = 319

smoothSolver:  Solving for Ux, Initial residual = 8.88662e-06, Final residual = 8.39874e-07, No Iterations 2
smoothSolver:  Solving for Uy, Initial residual = 4.11515e-06, Final residual = 1.85076e-07, No Iterations 4
GAMG:  Solving for p, Initial residual = 9.46323e-06, Final residual = 9.70877e-07, No Iterations 4
time step continuity errors : sum local = 8.05463e-09, global = -1.86046e-09, cumulative = 0.000296321
smoothSolver:  Solving for nuTilda, Initial residual = 1.37301e-05, Final residual = 1.20696e-06, No Iterations 2
ExecutionTime = 5.91 s  ClockTime = 6 s

Time = 320

smoothSolver:  Solving for Ux, Initial residual = 8.66696e-06, Final residual = 8.19312e-07, No Iterations 2
smoothSolver:  Solving for Uy, Initial residual = 4.01317e-06, Final residual = 1.80562e-07, No Iterations 4
GAMG:  Solving for p, Initial residual = 9.26307e-06, Final residual = 9.64344e-07, No Iterations 4
time step continuity errors : sum local = 8.0005e-09, global = -1.93299e-09, cumulative = 0.000296319
smoothSolver:  Solving for nuTilda, Initial residual = 1.34037e-05, Final residual = 1.17624e-06, No Iterations 2
ExecutionTime = 5.92 s  ClockTime = 6 s

Time = 321

smoothSolver:  Solving for Ux, Initial residual = 8.4525e-06, Final residual = 7.99599e-07, No Iterations 2
smoothSolver:  Solving for Uy, Initial residual = 3.91616e-06, Final residual = 1.76354e-07, No Iterations 4
GAMG:  Solving for p, Initial residual = 9.06388e-06, Final residual = 9.51295e-07, No Iterations 4
time step continuity errors : sum local = 7.89231e-09, global = -1.93317e-09, cumulative = 0.000296318
smoothSolver:  Solving for nuTilda, Initial residual = 1.30858e-05, Final residual = 1.14629e-06, No Iterations 2
ExecutionTime = 5.94 s  ClockTime = 6 s

Time = 322

smoothSolver:  Solving for Ux, Initial residual = 8.24347e-06, Final residual = 7.80124e-07, No Iterations 2
smoothSolver:  Solving for Uy, Initial residual = 3.82081e-06, Final residual = 1.7215e-07, No Iterations 4
GAMG:  Solving for p, Initial residual = 8.86534e-06, Final residual = 9.27872e-07, No Iterations 4
time step continuity errors : sum local = 7.69805e-09, global = -1.89701e-09, cumulative = 0.000296316
smoothSolver:  Solving for nuTilda, Initial residual = 1.2776e-05, Final residual = 1.11709e-06, No Iterations 2
ExecutionTime = 5.95 s  ClockTime = 6 s

Time = 323

smoothSolver:  Solving for Ux, Initial residual = 8.03984e-06, Final residual = 7.60782e-07, No Iterations 2
smoothSolver:  Solving for Uy, Initial residual = 3.72578e-06, Final residual = 1.6788e-07, No Iterations 4
GAMG:  Solving for p, Initial residual = 8.66548e-06, Final residual = 9.00097e-07, No Iterations 4
time step continuity errors : sum local = 7.46768e-09, global = -1.84114e-09, cumulative = 0.000296314
smoothSolver:  Solving for nuTilda, Initial residual = 1.24746e-05, Final residual = 1.08864e-06, No Iterations 2
ExecutionTime = 5.97 s  ClockTime = 7 s

Time = 324

smoothSolver:  Solving for Ux, Initial residual = 7.84143e-06, Final residual = 7.41816e-07, No Iterations 2
smoothSolver:  Solving for Uy, Initial residual = 3.63165e-06, Final residual = 1.63627e-07, No Iterations 4
GAMG:  Solving for p, Initial residual = 8.46263e-06, Final residual = 8.73739e-07, No Iterations 4
time step continuity errors : sum local = 7.24906e-09, global = -1.78181e-09, cumulative = 0.000296312
smoothSolver:  Solving for nuTilda, Initial residual = 1.21823e-05, Final residual = 1.06093e-06, No Iterations 2
ExecutionTime = 5.98 s  ClockTime = 7 s

Time = 325

smoothSolver:  Solving for Ux, Initial residual = 7.64801e-06, Final residual = 7.2346e-07, No Iterations 2
smoothSolver:  Solving for Uy, Initial residual = 3.53973e-06, Final residual = 1.59483e-07, No Iterations 4
GAMG:  Solving for p, Initial residual = 8.2595e-06, Final residual = 8.50666e-07, No Iterations 4
time step continuity errors : sum local = 7.05769e-09, global = -1.7281e-09, cumulative = 0.00029631
smoothSolver:  Solving for nuTilda, Initial residual = 1.18988e-05, Final residual = 1.03395e-06, No Iterations 2
ExecutionTime = 6 s  ClockTime = 7 s

Time = 326

smoothSolver:  Solving for Ux, Initial residual = 7.45936e-06, Final residual = 7.05756e-07, No Iterations 2
smoothSolver:  Solving for Uy, Initial residual = 3.45081e-06, Final residual = 1.55482e-07, No Iterations 4
GAMG:  Solving for p, Initial residual = 8.05783e-06, Final residual = 8.29683e-07, No Iterations 4
time step continuity errors : sum local = 6.88365e-09, global = -1.68163e-09, cumulative = 0.000296309
smoothSolver:  Solving for nuTilda, Initial residual = 1.16227e-05, Final residual = 1.00768e-06, No Iterations 2
ExecutionTime = 6.01 s  ClockTime = 7 s

Time = 327

smoothSolver:  Solving for Ux, Initial residual = 7.27531e-06, Final residual = 6.88593e-07, No Iterations 2
smoothSolver:  Solving for Uy, Initial residual = 3.36482e-06, Final residual = 1.51614e-07, No Iterations 4
GAMG:  Solving for p, Initial residual = 7.85949e-06, Final residual = 8.09169e-07, No Iterations 4
time step continuity errors : sum local = 6.71351e-09, global = -1.64037e-09, cumulative = 0.000296307
smoothSolver:  Solving for nuTilda, Initial residual = 1.13542e-05, Final residual = 9.82117e-07, No Iterations 2
ExecutionTime = 6.03 s  ClockTime = 7 s

Time = 328

smoothSolver:  Solving for Ux, Initial residual = 7.09569e-06, Final residual = 6.7183e-07, No Iterations 2
smoothSolver:  Solving for Uy, Initial residual = 3.28114e-06, Final residual = 1.47855e-07, No Iterations 4
GAMG:  Solving for p, Initial residual = 7.66597e-06, Final residual = 7.88734e-07, No Iterations 4
time step continuity errors : sum local = 6.54401e-09, global = -1.60207e-09, cumulative = 0.000296305
smoothSolver:  Solving for nuTilda, Initial residual = 1.10959e-05, Final residual = 9.57275e-07, No Iterations 2
ExecutionTime = 6.04 s  ClockTime = 7 s

Time = 329

smoothSolver:  Solving for Ux, Initial residual = 6.92036e-06, Final residual = 6.55383e-07, No Iterations 2
smoothSolver:  Solving for Uy, Initial residual = 3.19921e-06, Final residual = 1.44186e-07, No Iterations 4
GAMG:  Solving for p, Initial residual = 7.47802e-06, Final residual = 7.68913e-07, No Iterations 4
time step continuity errors : sum local = 6.3796e-09, global = -1.56517e-09, cumulative = 0.000296304
smoothSolver:  Solving for nuTilda, Initial residual = 1.08677e-05, Final residual = 9.33467e-07, No Iterations 2
ExecutionTime = 6.06 s  ClockTime = 7 s

Time = 330

smoothSolver:  Solving for Ux, Initial residual = 6.74921e-06, Final residual = 6.39249e-07, No Iterations 2
smoothSolver:  Solving for Uy, Initial residual = 3.11889e-06, Final residual = 1.40595e-07, No Iterations 4
GAMG:  Solving for p, Initial residual = 7.29595e-06, Final residual = 7.49992e-07, No Iterations 4
time step continuity errors : sum local = 6.22266e-09, global = -1.52837e-09, cumulative = 0.000296302
smoothSolver:  Solving for nuTilda, Initial residual = 1.06639e-05, Final residual = 9.10524e-07, No Iterations 2
ExecutionTime = 6.07 s  ClockTime = 7 s

Time = 331

smoothSolver:  Solving for Ux, Initial residual = 6.58217e-06, Final residual = 6.23469e-07, No Iterations 2
smoothSolver:  Solving for Uy, Initial residual = 3.04035e-06, Final residual = 1.37075e-07, No Iterations 4
GAMG:  Solving for p, Initial residual = 7.11854e-06, Final residual = 7.31682e-07, No Iterations 4
time step continuity errors : sum local = 6.07078e-09, global = -1.49046e-09, cumulative = 0.000296301
smoothSolver:  Solving for nuTilda, Initial residual = 1.04164e-05, Final residual = 8.87278e-07, No Iterations 2
ExecutionTime = 6.08 s  ClockTime = 7 s

Time = 332

smoothSolver:  Solving for Ux, Initial residual = 6.41921e-06, Final residual = 6.0809e-07, No Iterations 2
smoothSolver:  Solving for Uy, Initial residual = 2.9638e-06, Final residual = 1.33629e-07, No Iterations 4
GAMG:  Solving for p, Initial residual = 6.94379e-06, Final residual = 7.13263e-07, No Iterations 4
time step continuity errors : sum local = 5.918e-09, global = -1.45095e-09, cumulative = 0.000296299
smoothSolver:  Solving for nuTilda, Initial residual = 1.01593e-05, Final residual = 8.64444e-07, No Iterations 2
ExecutionTime = 6.11 s  ClockTime = 7 s

Time = 333

smoothSolver:  Solving for Ux, Initial residual = 6.26027e-06, Final residual = 5.93131e-07, No Iterations 2
smoothSolver:  Solving for Uy, Initial residual = 2.8893e-06, Final residual = 1.30263e-07, No Iterations 4
GAMG:  Solving for p, Initial residual = 6.77058e-06, Final residual = 6.94579e-07, No Iterations 4
time step continuity errors : sum local = 5.76301e-09, global = -1.41061e-09, cumulative = 0.000296298
smoothSolver:  Solving for nuTilda, Initial residual = 9.91749e-06, Final residual = 8.41495e-07, No Iterations 2
ExecutionTime = 6.12 s  ClockTime = 7 s


SIMPLE solution converged in 333 iterations

End

